file 17255373 1715940257                                        
version 3
run CarrierAggregation-1-20240517-12:03:52-11756
attr configname CarrierAggregation
attr datetime 20240517-12:03:52
attr datetimef 20240517-120352
attr experiment CarrierAggregation
attr inifile omnetpp.ini
attr iterationvars $numUes=5
attr iterationvarsd numUes=5
attr iterationvarsf numUes=5-
attr measurement $numUes=5
attr network simu5g.simulations.NR.networks.SingleCell_Standalone
attr processid 11756
attr repetition 0
attr replication #0
attr resultdir results
attr runnumber 1
attr seedset 0
itervar numUes 5
config debug-on-errors true
config image-path ../../../images;../../../../inet4.5/images
config extends Multiple-UEs
config *.carrierAggregation.numComponentCarriers 2
config *.carrierAggregation.componentCarrier[0].carrierFrequency 2GHz
config *.carrierAggregation.componentCarrier[0].numBands 6
config *.carrierAggregation.componentCarrier[1].carrierFrequency 6GHz
config *.carrierAggregation.componentCarrier[1].numBands 6
config *.gnb.cellularNic.numCarriers 2
config *.gnb.cellularNic.channelModel[0].componentCarrierIndex 0
config *.gnb.cellularNic.channelModel[1].componentCarrierIndex 1
config *.ue[*].cellularNic.numNRCarriers 2
config *.ue[*].cellularNic.nrChannelModel[0].componentCarrierIndex 0
config *.ue[*].cellularNic.nrChannelModel[1].componentCarrierIndex 1
config *.numBgCells 2
config *.bgCell[0].bgScheduler.carrierFrequency 2GHz
config *.bgCell[0].bgScheduler.numBands 6
config *.bgCell[1].bgScheduler.carrierFrequency 6GHz
config *.bgCell[1].bgScheduler.numBands 6
config *.bgCell[*].bgScheduler.txPower 23
config extends BgTraffic
config *.numUe 5
config *.ue[*].mobility.initialX uniform(0m,1000m)
config *.ue[*].mobility.initialY uniform(0m,1000m)
config *.server.numApps 5
config output-scalar-file results/CarrierAggregation/$numUes=5-0.sca
config output-vector-file results/CarrierAggregation/$numUes=5-0.vec
config extends Single-UE
config *.numBgCells 1
config *.bgCell[*].bgScheduler.isNr true
config *.bgCell[*].bgScheduler.txPower 23
config *.bgCell[*].mobility.initialX 750m
config *.bgCell[*].mobility.initialY 1000m
config *.bgCell[*].bgTrafficGenerator.numBgUes 10
config *.bgCell[*].bgTrafficGenerator.bgUE[*].mobility.initialX uniform(500m,1000m)
config *.bgCell[*].bgTrafficGenerator.bgUE[*].mobility.initialY uniform(500m,1000m)
config *.bgCell[*].bgTrafficGenerator.bgUE[*].trafficGeneratorType "\"TrafficGeneratorCbr\""
config *.bgCell[*].bgTrafficGenerator.bgUE[*].generator.startTimeDl uniform(0s,0.05s)
config *.bgCell[*].bgTrafficGenerator.bgUE[*].generator.packetSizeDl 1000B
config *.bgCell[*].bgTrafficGenerator.bgUE[*].generator.periodDl 0.01s
config *.gnb.mobility.initialX 500m
config *.gnb.mobility.initialY 500m
config *.numUe 1
config *.ue[*].mobility.initialX 500m
config *.ue[*].mobility.initialY 900m
config *.ue[*].macCellId 0
config *.ue[*].masterId 0
config *.ue[*].nrMacCellId 1
config *.ue[*].nrMasterId 1
config *.ue[*].numApps 1
config *.server.numApps 1
config *.ue[*].app[*].typename CbrReceiver
config *.ue[*].app[*].localPort 1000
config *.server.app[*].typename CbrSender
config *.server.app[*].PacketSize 1000
config *.server.app[*].sampling_time 0.01s
config *.server.app[*].destAddress "\"ue[\"+string(ancestorIndex(0))+\"]\""
config *.server.app[*].destPort 1000
config *.server.app[*].localPort 3088+ancestorIndex(0)
config *.server.app[*].startTime uniform(0.01s,0.05s)
config output-scalar-file-append false
config network simu5g.simulations.NR.networks.SingleCell_Standalone
config sim-time-limit 10s
config warmup-period 1s
config seed-set 0
config output-scalar-file results/CarrierAggregation/0.sca
config output-vector-file results/CarrierAggregation/0.vec
config **.routingRecorder.enabled false
config **.amcType "\"NRAmc\""
config **.targetBler 0.01
config **.blerShift 5
config *.configurator.config "xmldoc(\"./demo.xml\")"
config **.mobility.constraintAreaMaxX 1000m
config **.mobility.constraintAreaMaxY 1000m
config **.mobility.constraintAreaMinX 0m
config **.mobility.constraintAreaMinY 0m
config **.mobility.constraintAreaMinZ 0m
config **.mobility.constraintAreaMaxZ 0m
config **.mobility.initFromDisplayString false

vector 0 SingleCell_Standalone.server.ppp[0].queue queueLength:vector ETV
attr autoWarmupFilter false
attr interpolationmode sample-hold
attr recordingmode vector
attr source "warmup(atomic(constant0(packetPushEnded) + count(packetPushStarted) - count(packetPulled) - count(packetRemoved) - count(packetDropped)))"
attr title "queue length"
attr unit pk
vector 1 SingleCell_Standalone.server.ppp[0].queue queueBitLength:vector ETV
attr autoWarmupFilter false
attr interpolationmode sample-hold
attr recordingmode vector
attr source "warmup(atomic(constant0(packetPushEnded) + sum(packetLength(packetPushStarted)) - sum(packetLength(packetPulled)) - sum(packetLength(packetRemoved)) - sum(packetLength(packetDropped))))"
attr title "queue bit length"
attr unit b
vector 2 SingleCell_Standalone.server.udp passedUpPk:vector(count) ETV
attr interpolationmode none
attr recordingmode vector(count)
attr source packetSentToUpper
attr title "packets passed up, count"
vector 3 SingleCell_Standalone.server.udp droppedPkWrongPort:vector(count) ETV
attr interpolationmode none
attr recordingmode vector(count)
attr source packetDropReasonIsNoPortFound(packetDropped)
attr title "packets dropped (wrong port), count"
vector 4 SingleCell_Standalone.server.udp droppedPkBadChecksum:vector(count) ETV
attr interpolationmode none
attr recordingmode vector(count)
attr source packetDropReasonIsIncorrectlyReceived(packetDropped)
attr title "packets dropped (checksum error), count"
vector 5 SingleCell_Standalone.router.ppp[0].queue queueLength:vector ETV
attr autoWarmupFilter false
attr interpolationmode sample-hold
attr recordingmode vector
attr source "warmup(atomic(constant0(packetPushEnded) + count(packetPushStarted) - count(packetPulled) - count(packetRemoved) - count(packetDropped)))"
attr title "queue length"
attr unit pk
vector 6 SingleCell_Standalone.router.ppp[0].queue queueBitLength:vector ETV
attr autoWarmupFilter false
attr interpolationmode sample-hold
attr recordingmode vector
attr source "warmup(atomic(constant0(packetPushEnded) + sum(packetLength(packetPushStarted)) - sum(packetLength(packetPulled)) - sum(packetLength(packetRemoved)) - sum(packetLength(packetDropped))))"
attr title "queue bit length"
attr unit b
vector 7 SingleCell_Standalone.router.ppp[1].queue queueLength:vector ETV
attr autoWarmupFilter false
attr interpolationmode sample-hold
attr recordingmode vector
attr source "warmup(atomic(constant0(packetPushEnded) + count(packetPushStarted) - count(packetPulled) - count(packetRemoved) - count(packetDropped)))"
attr title "queue length"
attr unit pk
vector 8 SingleCell_Standalone.router.ppp[1].queue queueBitLength:vector ETV
attr autoWarmupFilter false
attr interpolationmode sample-hold
attr recordingmode vector
attr source "warmup(atomic(constant0(packetPushEnded) + sum(packetLength(packetPushStarted)) - sum(packetLength(packetPulled)) - sum(packetLength(packetRemoved)) - sum(packetLength(packetDropped))))"
attr title "queue bit length"
attr unit b
vector 9 SingleCell_Standalone.upf.ppp[0].queue queueLength:vector ETV
attr autoWarmupFilter false
attr interpolationmode sample-hold
attr recordingmode vector
attr source "warmup(atomic(constant0(packetPushEnded) + count(packetPushStarted) - count(packetPulled) - count(packetRemoved) - count(packetDropped)))"
attr title "queue length"
attr unit pk
vector 10 SingleCell_Standalone.upf.ppp[0].queue queueBitLength:vector ETV
attr autoWarmupFilter false
attr interpolationmode sample-hold
attr recordingmode vector
attr source "warmup(atomic(constant0(packetPushEnded) + sum(packetLength(packetPushStarted)) - sum(packetLength(packetPulled)) - sum(packetLength(packetRemoved)) - sum(packetLength(packetDropped))))"
attr title "queue bit length"
attr unit b
vector 11 SingleCell_Standalone.upf.pppIf.queue queueLength:vector ETV
attr autoWarmupFilter false
attr interpolationmode sample-hold
attr recordingmode vector
attr source "warmup(atomic(constant0(packetPushEnded) + count(packetPushStarted) - count(packetPulled) - count(packetRemoved) - count(packetDropped)))"
attr title "queue length"
attr unit pk
vector 12 SingleCell_Standalone.upf.pppIf.queue queueBitLength:vector ETV
attr autoWarmupFilter false
attr interpolationmode sample-hold
attr recordingmode vector
attr source "warmup(atomic(constant0(packetPushEnded) + sum(packetLength(packetPushStarted)) - sum(packetLength(packetPulled)) - sum(packetLength(packetRemoved)) - sum(packetLength(packetDropped))))"
attr title "queue bit length"
attr unit b
vector 13 SingleCell_Standalone.upf.udp passedUpPk:vector(count) ETV
attr interpolationmode none
attr recordingmode vector(count)
attr source packetSentToUpper
attr title "packets passed up, count"
vector 14 SingleCell_Standalone.upf.udp droppedPkWrongPort:vector(count) ETV
attr interpolationmode none
attr recordingmode vector(count)
attr source packetDropReasonIsNoPortFound(packetDropped)
attr title "packets dropped (wrong port), count"
vector 15 SingleCell_Standalone.upf.udp droppedPkBadChecksum:vector(count) ETV
attr interpolationmode none
attr recordingmode vector(count)
attr source packetDropReasonIsIncorrectlyReceived(packetDropped)
attr title "packets dropped (checksum error), count"
vector 16 SingleCell_Standalone.iUpf.ppp[0].queue queueLength:vector ETV
attr autoWarmupFilter false
attr interpolationmode sample-hold
attr recordingmode vector
attr source "warmup(atomic(constant0(packetPushEnded) + count(packetPushStarted) - count(packetPulled) - count(packetRemoved) - count(packetDropped)))"
attr title "queue length"
attr unit pk
vector 17 SingleCell_Standalone.iUpf.ppp[0].queue queueBitLength:vector ETV
attr autoWarmupFilter false
attr interpolationmode sample-hold
attr recordingmode vector
attr source "warmup(atomic(constant0(packetPushEnded) + sum(packetLength(packetPushStarted)) - sum(packetLength(packetPulled)) - sum(packetLength(packetRemoved)) - sum(packetLength(packetDropped))))"
attr title "queue bit length"
attr unit b
vector 18 SingleCell_Standalone.iUpf.ppp[1].queue queueLength:vector ETV
attr autoWarmupFilter false
attr interpolationmode sample-hold
attr recordingmode vector
attr source "warmup(atomic(constant0(packetPushEnded) + count(packetPushStarted) - count(packetPulled) - count(packetRemoved) - count(packetDropped)))"
attr title "queue length"
attr unit pk
vector 19 SingleCell_Standalone.iUpf.ppp[1].queue queueBitLength:vector ETV
attr autoWarmupFilter false
attr interpolationmode sample-hold
attr recordingmode vector
attr source "warmup(atomic(constant0(packetPushEnded) + sum(packetLength(packetPushStarted)) - sum(packetLength(packetPulled)) - sum(packetLength(packetRemoved)) - sum(packetLength(packetDropped))))"
attr title "queue bit length"
attr unit b
vector 20 SingleCell_Standalone.iUpf.pppIf.queue queueLength:vector ETV
attr autoWarmupFilter false
attr interpolationmode sample-hold
attr recordingmode vector
attr source "warmup(atomic(constant0(packetPushEnded) + count(packetPushStarted) - count(packetPulled) - count(packetRemoved) - count(packetDropped)))"
attr title "queue length"
attr unit pk
vector 21 SingleCell_Standalone.iUpf.pppIf.queue queueBitLength:vector ETV
attr autoWarmupFilter false
attr interpolationmode sample-hold
attr recordingmode vector
attr source "warmup(atomic(constant0(packetPushEnded) + sum(packetLength(packetPushStarted)) - sum(packetLength(packetPulled)) - sum(packetLength(packetRemoved)) - sum(packetLength(packetDropped))))"
attr title "queue bit length"
attr unit b
vector 22 SingleCell_Standalone.iUpf.udp passedUpPk:vector(count) ETV
attr interpolationmode none
attr recordingmode vector(count)
attr source packetSentToUpper
attr title "packets passed up, count"
vector 23 SingleCell_Standalone.iUpf.udp droppedPkWrongPort:vector(count) ETV
attr interpolationmode none
attr recordingmode vector(count)
attr source packetDropReasonIsNoPortFound(packetDropped)
attr title "packets dropped (wrong port), count"
vector 24 SingleCell_Standalone.iUpf.udp droppedPkBadChecksum:vector(count) ETV
attr interpolationmode none
attr recordingmode vector(count)
attr source packetDropReasonIsIncorrectlyReceived(packetDropped)
attr title "packets dropped (checksum error), count"
vector 25 SingleCell_Standalone.gnb.pppIf.queue queueLength:vector ETV
attr autoWarmupFilter false
attr interpolationmode sample-hold
attr recordingmode vector
attr source "warmup(atomic(constant0(packetPushEnded) + count(packetPushStarted) - count(packetPulled) - count(packetRemoved) - count(packetDropped)))"
attr title "queue length"
attr unit pk
vector 26 SingleCell_Standalone.gnb.pppIf.queue queueBitLength:vector ETV
attr autoWarmupFilter false
attr interpolationmode sample-hold
attr recordingmode vector
attr source "warmup(atomic(constant0(packetPushEnded) + sum(packetLength(packetPushStarted)) - sum(packetLength(packetPulled)) - sum(packetLength(packetRemoved)) - sum(packetLength(packetDropped))))"
attr title "queue bit length"
attr unit b
vector 27 SingleCell_Standalone.gnb.pppMEHostIf.queue queueLength:vector ETV
attr autoWarmupFilter false
attr interpolationmode sample-hold
attr recordingmode vector
attr source "warmup(atomic(constant0(packetPushEnded) + count(packetPushStarted) - count(packetPulled) - count(packetRemoved) - count(packetDropped)))"
attr title "queue length"
attr unit pk
vector 28 SingleCell_Standalone.gnb.pppMEHostIf.queue queueBitLength:vector ETV
attr autoWarmupFilter false
attr interpolationmode sample-hold
attr recordingmode vector
attr source "warmup(atomic(constant0(packetPushEnded) + sum(packetLength(packetPushStarted)) - sum(packetLength(packetPulled)) - sum(packetLength(packetRemoved)) - sum(packetLength(packetDropped))))"
attr title "queue bit length"
attr unit b
vector 29 SingleCell_Standalone.gnb.udp passedUpPk:vector(count) ETV
attr interpolationmode none
attr recordingmode vector(count)
attr source packetSentToUpper
attr title "packets passed up, count"
vector 30 SingleCell_Standalone.gnb.udp droppedPkWrongPort:vector(count) ETV
attr interpolationmode none
attr recordingmode vector(count)
attr source packetDropReasonIsNoPortFound(packetDropped)
attr title "packets dropped (wrong port), count"
vector 31 SingleCell_Standalone.gnb.udp droppedPkBadChecksum:vector(count) ETV
attr interpolationmode none
attr recordingmode vector(count)
attr source packetDropReasonIsIncorrectlyReceived(packetDropped)
attr title "packets dropped (checksum error), count"
vector 32 SingleCell_Standalone.ue[0].udp passedUpPk:vector(count) ETV
attr interpolationmode none
attr recordingmode vector(count)
attr source packetSentToUpper
attr title "packets passed up, count"
vector 33 SingleCell_Standalone.ue[0].udp droppedPkWrongPort:vector(count) ETV
attr interpolationmode none
attr recordingmode vector(count)
attr source packetDropReasonIsNoPortFound(packetDropped)
attr title "packets dropped (wrong port), count"
vector 34 SingleCell_Standalone.ue[0].udp droppedPkBadChecksum:vector(count) ETV
attr interpolationmode none
attr recordingmode vector(count)
attr source packetDropReasonIsIncorrectlyReceived(packetDropped)
attr title "packets dropped (checksum error), count"
vector 35 SingleCell_Standalone.ue[1].udp passedUpPk:vector(count) ETV
attr interpolationmode none
attr recordingmode vector(count)
attr source packetSentToUpper
attr title "packets passed up, count"
vector 36 SingleCell_Standalone.ue[1].udp droppedPkWrongPort:vector(count) ETV
attr interpolationmode none
attr recordingmode vector(count)
attr source packetDropReasonIsNoPortFound(packetDropped)
attr title "packets dropped (wrong port), count"
vector 37 SingleCell_Standalone.ue[1].udp droppedPkBadChecksum:vector(count) ETV
attr interpolationmode none
attr recordingmode vector(count)
attr source packetDropReasonIsIncorrectlyReceived(packetDropped)
attr title "packets dropped (checksum error), count"
vector 38 SingleCell_Standalone.ue[2].udp passedUpPk:vector(count) ETV
attr interpolationmode none
attr recordingmode vector(count)
attr source packetSentToUpper
attr title "packets passed up, count"
vector 39 SingleCell_Standalone.ue[2].udp droppedPkWrongPort:vector(count) ETV
attr interpolationmode none
attr recordingmode vector(count)
attr source packetDropReasonIsNoPortFound(packetDropped)
attr title "packets dropped (wrong port), count"
vector 40 SingleCell_Standalone.ue[2].udp droppedPkBadChecksum:vector(count) ETV
attr interpolationmode none
attr recordingmode vector(count)
attr source packetDropReasonIsIncorrectlyReceived(packetDropped)
attr title "packets dropped (checksum error), count"
vector 41 SingleCell_Standalone.ue[3].udp passedUpPk:vector(count) ETV
attr interpolationmode none
attr recordingmode vector(count)
attr source packetSentToUpper
attr title "packets passed up, count"
vector 42 SingleCell_Standalone.ue[3].udp droppedPkWrongPort:vector(count) ETV
attr interpolationmode none
attr recordingmode vector(count)
attr source packetDropReasonIsNoPortFound(packetDropped)
attr title "packets dropped (wrong port), count"
vector 43 SingleCell_Standalone.ue[3].udp droppedPkBadChecksum:vector(count) ETV
attr interpolationmode none
attr recordingmode vector(count)
attr source packetDropReasonIsIncorrectlyReceived(packetDropped)
attr title "packets dropped (checksum error), count"
vector 44 SingleCell_Standalone.ue[4].udp passedUpPk:vector(count) ETV
attr interpolationmode none
attr recordingmode vector(count)
attr source packetSentToUpper
attr title "packets passed up, count"
vector 45 SingleCell_Standalone.ue[4].udp droppedPkWrongPort:vector(count) ETV
attr interpolationmode none
attr recordingmode vector(count)
attr source packetDropReasonIsNoPortFound(packetDropped)
attr title "packets dropped (wrong port), count"
vector 46 SingleCell_Standalone.ue[4].udp droppedPkBadChecksum:vector(count) ETV
attr interpolationmode none
attr recordingmode vector(count)
attr source packetDropReasonIsIncorrectlyReceived(packetDropped)
attr title "packets dropped (checksum error), count"
vector 47 SingleCell_Standalone.bgCell[0].bgScheduler bgAvgServedBlocksUl:vector ETV
attr recordingmode vector
attr source bgAvgServedBlocksUl
attr title "Average UL served blocks for background cells"
attr unit ""
vector 48 SingleCell_Standalone.bgCell[0].bgTrafficGenerator.bgUE[6].generator bgAverageCqiDl:vector ETV
attr recordingmode vector
attr source bgAverageCqiDl
attr title "Average DL CQI for background UEs"
attr unit ""
vector 49 SingleCell_Standalone.bgCell[0].bgTrafficGenerator.bgUE[6].generator bgHarqErrorRateDl:vector ETV
attr recordingmode vector
attr source bgHarqErrorRateDl
attr title "Average DL HARQ error rate for background UEs"
attr unit ""
vector 50 SingleCell_Standalone.bgCell[0].bgTrafficGenerator.bgUE[0].generator bgAverageCqiDl:vector ETV
attr recordingmode vector
attr source bgAverageCqiDl
attr title "Average DL CQI for background UEs"
attr unit ""
vector 51 SingleCell_Standalone.bgCell[0].bgTrafficGenerator.bgUE[0].generator bgHarqErrorRateDl:vector ETV
attr recordingmode vector
attr source bgHarqErrorRateDl
attr title "Average DL HARQ error rate for background UEs"
attr unit ""
vector 52 SingleCell_Standalone.bgCell[0].bgScheduler bgAvgServedBlocksDl:vector ETV
attr recordingmode vector
attr source bgAvgServedBlocksDl
attr title "Average DL served blocks for background cells"
attr unit ""
vector 53 SingleCell_Standalone.bgCell[1].bgScheduler bgAvgServedBlocksUl:vector ETV
attr recordingmode vector
attr source bgAvgServedBlocksUl
attr title "Average UL served blocks for background cells"
attr unit ""
vector 54 SingleCell_Standalone.bgCell[1].bgTrafficGenerator.bgUE[2].generator bgAverageCqiDl:vector ETV
attr recordingmode vector
attr source bgAverageCqiDl
attr title "Average DL CQI for background UEs"
attr unit ""
vector 55 SingleCell_Standalone.bgCell[1].bgTrafficGenerator.bgUE[2].generator bgHarqErrorRateDl:vector ETV
attr recordingmode vector
attr source bgHarqErrorRateDl
attr title "Average DL HARQ error rate for background UEs"
attr unit ""
vector 56 SingleCell_Standalone.bgCell[1].bgTrafficGenerator.bgUE[6].generator bgAverageCqiDl:vector ETV
attr recordingmode vector
attr source bgAverageCqiDl
attr title "Average DL CQI for background UEs"
attr unit ""
vector 57 SingleCell_Standalone.bgCell[1].bgTrafficGenerator.bgUE[6].generator bgHarqErrorRateDl:vector ETV
attr recordingmode vector
attr source bgHarqErrorRateDl
attr title "Average DL HARQ error rate for background UEs"
attr unit ""
vector 58 SingleCell_Standalone.bgCell[1].bgScheduler bgAvgServedBlocksDl:vector ETV
attr recordingmode vector
attr source bgAvgServedBlocksDl
attr title "Average DL served blocks for background cells"
attr unit ""
vector 59 SingleCell_Standalone.gnb.cellularNic.mac avgServedBlocksUl:vector ETV
attr recordingmode vector
attr source avgServedBlocksUl
attr title "Avg Served Blocks Ul"
attr unit blocks
vector 60 SingleCell_Standalone.gnb.cellularNic.mac avgServedBlocksDl:vector ETV
attr recordingmode vector
attr source avgServedBlocksDl
attr title "Avg Served Blocks Dl"
attr unit blocks
vector 61 SingleCell_Standalone.gnb.cellularNic.mac sentPacketToUpperLayer:vector(packetBytes) ETV
attr interpolationmode none
attr recordingmode vector(packetBytes)
attr source sentPacketToUpperLayer
vector 62 SingleCell_Standalone.gnb.cellularNic.rlc.um rlcPacketLossDl:vector ETV
attr recordingmode vector
attr source rlcPacketLossDl
attr title "rlc Packet Loss"
attr unit ""
vector 63 SingleCell_Standalone.gnb.cellularNic.rlc.um sentPacketToLowerLayer:vector(packetBytes) ETV
attr interpolationmode none
attr recordingmode vector(packetBytes)
attr source sentPacketToLowerLayer
vector 64 SingleCell_Standalone.gnb.cellularNic.mac receivedPacketFromUpperLayer:vector(packetBytes) ETV
attr interpolationmode none
attr recordingmode vector(packetBytes)
attr source receivedPacketFromUpperLayer
vector 65 SingleCell_Standalone.ue[1].cellularNic.nrMac sentPacketToLowerLayer:vector(packetBytes) ETV
attr interpolationmode none
attr recordingmode vector(packetBytes)
attr source sentPacketToLowerLayer
vector 66 SingleCell_Standalone.gnb.cellularNic.mac macDelayDl:vector ETV
attr recordingmode vector
attr source macDelayDl
attr title "Delay at the MAC layer UL"
attr unit s
vector 67 SingleCell_Standalone.ue[1].cellularNic.nrMac sentPacketToUpperLayer:vector(packetBytes) ETV
attr interpolationmode none
attr recordingmode vector(packetBytes)
attr source sentPacketToUpperLayer
vector 68 SingleCell_Standalone.ue[1].cellularNic.nrRlc.um receivedPacketFromLowerLayer:vector(packetBytes) ETV
attr interpolationmode none
attr recordingmode vector(packetBytes)
attr source receivedPacketFromLowerLayer
vector 69 SingleCell_Standalone.ue[1].cellularNic.nrRlc.um rlcPduThroughputDl:vector ETV
attr recordingmode vector
attr source rlcPduThroughputDl
attr title "Throughput at the rlc layer DL"
attr unit Bps
vector 70 SingleCell_Standalone.ue[1].cellularNic.nrRlc.um rlcPduDelayDl:vector ETV
attr recordingmode vector
attr source rlcPduDelayDl
attr title "Delay at the rlc layer UL"
attr unit s
vector 71 SingleCell_Standalone.ue[1].cellularNic.nrRlc.um rlcThroughputDl:vector ETV
attr recordingmode vector
attr source rlcThroughputDl
attr title "Throughput at the rlc layer DL"
attr unit Bps
vector 72 SingleCell_Standalone.ue[1].cellularNic.nrRlc.um rlcPacketLossDl:vector ETV
attr recordingmode vector
attr source rlcPacketLossDl
attr title "rlc Packet Loss"
attr unit ""
vector 73 SingleCell_Standalone.ue[1].cellularNic.nrRlc.um rlcPacketLossTotal:vector ETV
attr recordingmode vector
attr source rlcPacketLossTotal
attr title "rlc Packet Loss"
attr unit ""
vector 74 SingleCell_Standalone.ue[1].cellularNic.nrRlc.um rlcDelayDl:vector ETV
attr recordingmode vector
attr source rlcDelayDl
attr title "Delay at the rlc layer DL"
attr unit s
vector 75 SingleCell_Standalone.ue[1].cellularNic.nrRlc.um sentPacketToUpperLayer:vector(packetBytes) ETV
attr interpolationmode none
attr recordingmode vector(packetBytes)
attr source sentPacketToUpperLayer
vector 76 SingleCell_Standalone.ue[1].cellularNic.nrRlc.um rlcPduPacketLossDl:vector ETV
attr recordingmode vector
attr source rlcPduPacketLossDl
attr title "rlc Packet Loss"
attr unit ""
vector 77 SingleCell_Standalone.ue[1].cellularNic.pdcpRrc receivedPacketFromLowerLayer:vector(packetBytes) ETV
attr interpolationmode none
attr recordingmode vector(packetBytes)
attr source receivedPacketFromLowerLayer
vector 78 SingleCell_Standalone.ue[1].cellularNic.pdcpRrc sentPacketToUpperLayer:vector(packetBytes) ETV
attr interpolationmode none
attr recordingmode vector(packetBytes)
attr source sentPacketToUpperLayer
vector 79 SingleCell_Standalone.ue[1].udp packetReceived:vector(packetBytes) ETV
attr interpolationmode none
attr recordingmode vector(packetBytes)
attr source packetReceived
attr title "packets received, packetBytes"
vector 80 SingleCell_Standalone.ue[1].app[0] cbrFrameDelay:vector ETV
attr recordingmode vector
attr source cbrFrameDelaySignal
attr title "Cbr Frame Delay"
attr unit s
vector 81 SingleCell_Standalone.ue[1].app[0] cbrRcvdPkt:vector ETV
attr recordingmode vector
attr source cbrRcvdPkt
attr title "Received packet ID"
attr unit ""
vector 82 SingleCell_Standalone.gnb.cellularNic.mac sentPacketToLowerLayer:vector(packetBytes) ETV
attr interpolationmode none
attr recordingmode vector(packetBytes)
attr source sentPacketToLowerLayer
vector 83 SingleCell_Standalone.gnb.cellularNic.mac receivedPacketFromLowerLayer:vector(packetBytes) ETV
attr interpolationmode none
attr recordingmode vector(packetBytes)
attr source receivedPacketFromLowerLayer
vector 84 SingleCell_Standalone.ue[0].cellularNic.nrMac harqErrorRate_1st_Dl:vector ETV
attr recordingmode vector
attr source harqErrorRate_1st_Dl
attr title "Harq Error Rate Dl (1st tx)"
attr unit ""
vector 85 SingleCell_Standalone.ue[0].cellularNic.nrMac harqErrorRateDl:vector ETV
attr recordingmode vector
attr source harqErrorRateDl
attr title "Harq Error Rate Dl"
attr unit ""
vector 86 SingleCell_Standalone.ue[0].cellularNic.nrMac harqTxAttemptsDl:vector ETV
attr recordingmode vector
attr source harqTxAttemptsDl
attr title "Harq Tx Attempts Dl"
attr unit ""
vector 87 SingleCell_Standalone.ue[1].cellularNic.nrMac harqErrorRate_1st_Dl:vector ETV
attr recordingmode vector
attr source harqErrorRate_1st_Dl
attr title "Harq Error Rate Dl (1st tx)"
attr unit ""
vector 88 SingleCell_Standalone.ue[1].cellularNic.nrMac harqErrorRateDl:vector ETV
attr recordingmode vector
attr source harqErrorRateDl
attr title "Harq Error Rate Dl"
attr unit ""
vector 89 SingleCell_Standalone.ue[1].cellularNic.nrMac harqTxAttemptsDl:vector ETV
attr recordingmode vector
attr source harqTxAttemptsDl
attr title "Harq Tx Attempts Dl"
attr unit ""
vector 90 SingleCell_Standalone.ue[3].cellularNic.nrPhy averageCqiDl:vector ETV
attr recordingmode vector
attr source averageCqiDl
attr title "Average Cqi reported in DL"
attr unit cqi
vector 91 SingleCell_Standalone.ue[3].cellularNic.nrChannelModel[0] distance:vector ETV
attr recordingmode vector
attr source distance
attr title "distance between UE and serving base station"
attr unit meters
vector 92 SingleCell_Standalone.ue[3].cellularNic.nrChannelModel[0] rcvdSinrDl:vector ETV
attr recordingmode vector
attr source rcvdSinrDl
attr title "SINR measured at packet reception, DL"
attr unit dB
vector 93 SingleCell_Standalone.ue[3].cellularNic.nrMac receivedPacketFromLowerLayer:vector(packetBytes) ETV
attr interpolationmode none
attr recordingmode vector(packetBytes)
attr source receivedPacketFromLowerLayer
vector 94 SingleCell_Standalone.server.udp packetSent:vector(packetBytes) ETV
attr interpolationmode none
attr recordingmode vector(packetBytes)
attr source packetSent
attr title "packets sent, packetBytes"
vector 95 SingleCell_Standalone.server.ppp[0].queue incomingPacketLengths:vector ETV
attr interpolationmode none
attr recordingmode vector
attr source packetLength(packetPushStarted)
attr title "incoming packet lengths"
attr unit b
vector 96 SingleCell_Standalone.server.ppp[0].queue queueingTime:vector ETV
attr interpolationmode none
attr recordingmode vector
attr source queueingTime(packetPulled)
attr title "queueing times"
attr unit s
vector 97 SingleCell_Standalone.server.ppp[0].queue outgoingPacketLengths:vector ETV
attr interpolationmode none
attr recordingmode vector
attr source packetLength(packetPulled)
attr title "outgoing packet lengths"
attr unit b
vector 98 SingleCell_Standalone.server.ppp[0].ppp rcvdPkFromHl:vector(packetBytes) ETV
attr interpolationmode none
attr recordingmode vector(packetBytes)
attr source packetReceivedFromUpper
attr title "packets received from higher layer, packetBytes"
vector 99 SingleCell_Standalone.server.ppp[0].ppp transmissionState:vector ETV
attr interpolationmode sample-hold
attr recordingmode vector
attr source transmissionStateChanged
attr title "tx state"
vector 100 SingleCell_Standalone.server.ppp[0].ppp txPk:vector(packetBytes) ETV
attr interpolationmode none
attr recordingmode vector(packetBytes)
attr source packetSentToLower
attr title "packets transmitted, packetBytes"
vector 101 SingleCell_Standalone.router.ppp[0].ppp rxPkOk:vector(packetBytes) ETV
attr interpolationmode none
attr recordingmode vector(packetBytes)
attr source rxPkOk
attr title "packets received OK, packetBytes"
vector 102 SingleCell_Standalone.router.ppp[0].ppp passedUpPk:vector(packetBytes) ETV
attr interpolationmode none
attr recordingmode vector(packetBytes)
attr source packetSentToUpper
attr title "packets passed to higher layer, packetBytes"
vector 103 SingleCell_Standalone.router.ppp[1].queue incomingPacketLengths:vector ETV
attr interpolationmode none
attr recordingmode vector
attr source packetLength(packetPushStarted)
attr title "incoming packet lengths"
attr unit b
vector 104 SingleCell_Standalone.router.ppp[1].queue queueingTime:vector ETV
attr interpolationmode none
attr recordingmode vector
attr source queueingTime(packetPulled)
attr title "queueing times"
attr unit s
vector 105 SingleCell_Standalone.router.ppp[1].queue outgoingPacketLengths:vector ETV
attr interpolationmode none
attr recordingmode vector
attr source packetLength(packetPulled)
attr title "outgoing packet lengths"
attr unit b
vector 106 SingleCell_Standalone.router.ppp[1].ppp rcvdPkFromHl:vector(packetBytes) ETV
attr interpolationmode none
attr recordingmode vector(packetBytes)
attr source packetReceivedFromUpper
attr title "packets received from higher layer, packetBytes"
vector 107 SingleCell_Standalone.router.ppp[1].ppp transmissionState:vector ETV
attr interpolationmode sample-hold
attr recordingmode vector
attr source transmissionStateChanged
attr title "tx state"
vector 108 SingleCell_Standalone.router.ppp[1].ppp txPk:vector(packetBytes) ETV
attr interpolationmode none
attr recordingmode vector(packetBytes)
attr source packetSentToLower
attr title "packets transmitted, packetBytes"
vector 109 SingleCell_Standalone.upf.pppIf.ppp rxPkOk:vector(packetBytes) ETV
attr interpolationmode none
attr recordingmode vector(packetBytes)
attr source rxPkOk
attr title "packets received OK, packetBytes"
vector 110 SingleCell_Standalone.upf.pppIf.ppp passedUpPk:vector(packetBytes) ETV
attr interpolationmode none
attr recordingmode vector(packetBytes)
attr source packetSentToUpper
attr title "packets passed to higher layer, packetBytes"
vector 111 SingleCell_Standalone.upf.udp packetSent:vector(packetBytes) ETV
attr interpolationmode none
attr recordingmode vector(packetBytes)
attr source packetSent
attr title "packets sent, packetBytes"
vector 112 SingleCell_Standalone.upf.ppp[0].queue incomingPacketLengths:vector ETV
attr interpolationmode none
attr recordingmode vector
attr source packetLength(packetPushStarted)
attr title "incoming packet lengths"
attr unit b
vector 113 SingleCell_Standalone.upf.ppp[0].queue queueingTime:vector ETV
attr interpolationmode none
attr recordingmode vector
attr source queueingTime(packetPulled)
attr title "queueing times"
attr unit s
vector 114 SingleCell_Standalone.upf.ppp[0].queue outgoingPacketLengths:vector ETV
attr interpolationmode none
attr recordingmode vector
attr source packetLength(packetPulled)
attr title "outgoing packet lengths"
attr unit b
vector 115 SingleCell_Standalone.upf.ppp[0].ppp rcvdPkFromHl:vector(packetBytes) ETV
attr interpolationmode none
attr recordingmode vector(packetBytes)
attr source packetReceivedFromUpper
attr title "packets received from higher layer, packetBytes"
vector 116 SingleCell_Standalone.upf.ppp[0].ppp transmissionState:vector ETV
attr interpolationmode sample-hold
attr recordingmode vector
attr source transmissionStateChanged
attr title "tx state"
vector 117 SingleCell_Standalone.upf.ppp[0].ppp txPk:vector(packetBytes) ETV
attr interpolationmode none
attr recordingmode vector(packetBytes)
attr source packetSentToLower
attr title "packets transmitted, packetBytes"
vector 118 SingleCell_Standalone.iUpf.ppp[0].ppp rxPkOk:vector(packetBytes) ETV
attr interpolationmode none
attr recordingmode vector(packetBytes)
attr source rxPkOk
attr title "packets received OK, packetBytes"
vector 119 SingleCell_Standalone.iUpf.ppp[0].ppp passedUpPk:vector(packetBytes) ETV
attr interpolationmode none
attr recordingmode vector(packetBytes)
attr source packetSentToUpper
attr title "packets passed to higher layer, packetBytes"
vector 120 SingleCell_Standalone.iUpf.ppp[1].queue incomingPacketLengths:vector ETV
attr interpolationmode none
attr recordingmode vector
attr source packetLength(packetPushStarted)
attr title "incoming packet lengths"
attr unit b
vector 121 SingleCell_Standalone.iUpf.ppp[1].queue queueingTime:vector ETV
attr interpolationmode none
attr recordingmode vector
attr source queueingTime(packetPulled)
attr title "queueing times"
attr unit s
vector 122 SingleCell_Standalone.iUpf.ppp[1].queue outgoingPacketLengths:vector ETV
attr interpolationmode none
attr recordingmode vector
attr source packetLength(packetPulled)
attr title "outgoing packet lengths"
attr unit b
vector 123 SingleCell_Standalone.iUpf.ppp[1].ppp rcvdPkFromHl:vector(packetBytes) ETV
attr interpolationmode none
attr recordingmode vector(packetBytes)
attr source packetReceivedFromUpper
attr title "packets received from higher layer, packetBytes"
vector 124 SingleCell_Standalone.iUpf.ppp[1].ppp transmissionState:vector ETV
attr interpolationmode sample-hold
attr recordingmode vector
attr source transmissionStateChanged
attr title "tx state"
vector 125 SingleCell_Standalone.iUpf.ppp[1].ppp txPk:vector(packetBytes) ETV
attr interpolationmode none
attr recordingmode vector(packetBytes)
attr source packetSentToLower
attr title "packets transmitted, packetBytes"
vector 126 SingleCell_Standalone.gnb.pppIf.ppp rxPkOk:vector(packetBytes) ETV
attr interpolationmode none
attr recordingmode vector(packetBytes)
attr source rxPkOk
attr title "packets received OK, packetBytes"
vector 127 SingleCell_Standalone.gnb.pppIf.ppp passedUpPk:vector(packetBytes) ETV
attr interpolationmode none
attr recordingmode vector(packetBytes)
attr source packetSentToUpper
attr title "packets passed to higher layer, packetBytes"
vector 128 SingleCell_Standalone.gnb.udp packetReceived:vector(packetBytes) ETV
attr interpolationmode none
attr recordingmode vector(packetBytes)
attr source packetReceived
attr title "packets received, packetBytes"
vector 129 SingleCell_Standalone.gnb.cellularNic.pdcpRrc receivedPacketFromUpperLayer:vector(packetBytes) ETV
attr interpolationmode none
attr recordingmode vector(packetBytes)
attr source receivedPacketFromUpperLayer
vector 130 SingleCell_Standalone.gnb.cellularNic.pdcpRrc sentPacketToLowerLayer:vector(packetBytes) ETV
attr interpolationmode none
attr recordingmode vector(packetBytes)
attr source sentPacketToLowerLayer
vector 131 SingleCell_Standalone.gnb.cellularNic.rlc.um receivedPacketFromUpperLayer:vector(packetBytes) ETV
attr interpolationmode none
attr recordingmode vector(packetBytes)
attr source receivedPacketFromUpperLayer
vector 132 SingleCell_Standalone.bgCell[1].bgTrafficGenerator.bgUE[8].generator bgAverageCqiDl:vector ETV
attr recordingmode vector
attr source bgAverageCqiDl
attr title "Average DL CQI for background UEs"
attr unit ""
vector 133 SingleCell_Standalone.bgCell[1].bgTrafficGenerator.bgUE[8].generator bgHarqErrorRateDl:vector ETV
attr recordingmode vector
attr source bgHarqErrorRateDl
attr title "Average DL HARQ error rate for background UEs"
attr unit ""
vector 134 SingleCell_Standalone.ue[2].cellularNic.nrPhy averageCqiDl:vector ETV
attr recordingmode vector
attr source averageCqiDl
attr title "Average Cqi reported in DL"
attr unit cqi
vector 135 SingleCell_Standalone.ue[2].cellularNic.nrChannelModel[0] distance:vector ETV
attr recordingmode vector
attr source distance
attr title "distance between UE and serving base station"
attr unit meters
vector 136 SingleCell_Standalone.ue[2].cellularNic.nrChannelModel[0] rcvdSinrDl:vector ETV
attr recordingmode vector
attr source rcvdSinrDl
attr title "SINR measured at packet reception, DL"
attr unit dB
vector 137 SingleCell_Standalone.ue[2].cellularNic.nrMac receivedPacketFromLowerLayer:vector(packetBytes) ETV
attr interpolationmode none
attr recordingmode vector(packetBytes)
attr source receivedPacketFromLowerLayer
vector 138 SingleCell_Standalone.bgCell[0].bgTrafficGenerator.bgUE[0].generator bgMeasuredSinrDl:vector ETV
attr recordingmode vector
attr source bgMeasuredSinrDl
attr title "Average DL SINR for background UEs"
attr unit ""
vector 139 SingleCell_Standalone.bgCell[0].bgTrafficGenerator.bgUE[1].generator bgMeasuredSinrDl:vector ETV
attr recordingmode vector
attr source bgMeasuredSinrDl
attr title "Average DL SINR for background UEs"
attr unit ""
vector 140 SingleCell_Standalone.bgCell[0].bgTrafficGenerator.bgUE[2].generator bgMeasuredSinrDl:vector ETV
attr recordingmode vector
attr source bgMeasuredSinrDl
attr title "Average DL SINR for background UEs"
attr unit ""
vector 141 SingleCell_Standalone.bgCell[0].bgTrafficGenerator.bgUE[3].generator bgMeasuredSinrDl:vector ETV
attr recordingmode vector
attr source bgMeasuredSinrDl
attr title "Average DL SINR for background UEs"
attr unit ""
vector 142 SingleCell_Standalone.bgCell[0].bgTrafficGenerator.bgUE[4].generator bgMeasuredSinrDl:vector ETV
attr recordingmode vector
attr source bgMeasuredSinrDl
attr title "Average DL SINR for background UEs"
attr unit ""
vector 143 SingleCell_Standalone.bgCell[0].bgTrafficGenerator.bgUE[5].generator bgMeasuredSinrDl:vector ETV
attr recordingmode vector
attr source bgMeasuredSinrDl
attr title "Average DL SINR for background UEs"
attr unit ""
vector 144 SingleCell_Standalone.bgCell[0].bgTrafficGenerator.bgUE[6].generator bgMeasuredSinrDl:vector ETV
attr recordingmode vector
attr source bgMeasuredSinrDl
attr title "Average DL SINR for background UEs"
attr unit ""
vector 145 SingleCell_Standalone.bgCell[0].bgTrafficGenerator.bgUE[7].generator bgMeasuredSinrDl:vector ETV
attr recordingmode vector
attr source bgMeasuredSinrDl
attr title "Average DL SINR for background UEs"
attr unit ""
vector 146 SingleCell_Standalone.bgCell[0].bgTrafficGenerator.bgUE[8].generator bgMeasuredSinrDl:vector ETV
attr recordingmode vector
attr source bgMeasuredSinrDl
attr title "Average DL SINR for background UEs"
attr unit ""
vector 147 SingleCell_Standalone.bgCell[0].bgTrafficGenerator.bgUE[9].generator bgMeasuredSinrDl:vector ETV
attr recordingmode vector
attr source bgMeasuredSinrDl
attr title "Average DL SINR for background UEs"
attr unit ""
vector 148 SingleCell_Standalone.bgCell[1].bgTrafficGenerator.bgUE[0].generator bgMeasuredSinrDl:vector ETV
attr recordingmode vector
attr source bgMeasuredSinrDl
attr title "Average DL SINR for background UEs"
attr unit ""
vector 149 SingleCell_Standalone.bgCell[1].bgTrafficGenerator.bgUE[1].generator bgMeasuredSinrDl:vector ETV
attr recordingmode vector
attr source bgMeasuredSinrDl
attr title "Average DL SINR for background UEs"
attr unit ""
vector 150 SingleCell_Standalone.bgCell[1].bgTrafficGenerator.bgUE[2].generator bgMeasuredSinrDl:vector ETV
attr recordingmode vector
attr source bgMeasuredSinrDl
attr title "Average DL SINR for background UEs"
attr unit ""
vector 151 SingleCell_Standalone.bgCell[1].bgTrafficGenerator.bgUE[3].generator bgMeasuredSinrDl:vector ETV
attr recordingmode vector
attr source bgMeasuredSinrDl
attr title "Average DL SINR for background UEs"
attr unit ""
vector 152 SingleCell_Standalone.bgCell[1].bgTrafficGenerator.bgUE[4].generator bgMeasuredSinrDl:vector ETV
attr recordingmode vector
attr source bgMeasuredSinrDl
attr title "Average DL SINR for background UEs"
attr unit ""
vector 153 SingleCell_Standalone.bgCell[1].bgTrafficGenerator.bgUE[5].generator bgMeasuredSinrDl:vector ETV
attr recordingmode vector
attr source bgMeasuredSinrDl
attr title "Average DL SINR for background UEs"
attr unit ""
vector 154 SingleCell_Standalone.bgCell[1].bgTrafficGenerator.bgUE[6].generator bgMeasuredSinrDl:vector ETV
attr recordingmode vector
attr source bgMeasuredSinrDl
attr title "Average DL SINR for background UEs"
attr unit ""
vector 155 SingleCell_Standalone.bgCell[1].bgTrafficGenerator.bgUE[7].generator bgMeasuredSinrDl:vector ETV
attr recordingmode vector
attr source bgMeasuredSinrDl
attr title "Average DL SINR for background UEs"
attr unit ""
vector 156 SingleCell_Standalone.bgCell[1].bgTrafficGenerator.bgUE[8].generator bgMeasuredSinrDl:vector ETV
attr recordingmode vector
attr source bgMeasuredSinrDl
attr title "Average DL SINR for background UEs"
attr unit ""
vector 157 SingleCell_Standalone.bgCell[1].bgTrafficGenerator.bgUE[9].generator bgMeasuredSinrDl:vector ETV
attr recordingmode vector
attr source bgMeasuredSinrDl
attr title "Average DL SINR for background UEs"
attr unit ""
vector 158 SingleCell_Standalone.ue[3].cellularNic.nrMac sentPacketToLowerLayer:vector(packetBytes) ETV
attr interpolationmode none
attr recordingmode vector(packetBytes)
attr source sentPacketToLowerLayer
vector 159 SingleCell_Standalone.ue[3].cellularNic.nrMac sentPacketToUpperLayer:vector(packetBytes) ETV
attr interpolationmode none
attr recordingmode vector(packetBytes)
attr source sentPacketToUpperLayer
vector 160 SingleCell_Standalone.ue[3].cellularNic.nrRlc.um receivedPacketFromLowerLayer:vector(packetBytes) ETV
attr interpolationmode none
attr recordingmode vector(packetBytes)
attr source receivedPacketFromLowerLayer
vector 161 SingleCell_Standalone.ue[3].cellularNic.nrRlc.um rlcPduThroughputDl:vector ETV
attr recordingmode vector
attr source rlcPduThroughputDl
attr title "Throughput at the rlc layer DL"
attr unit Bps
vector 162 SingleCell_Standalone.ue[3].cellularNic.nrRlc.um rlcPduDelayDl:vector ETV
attr recordingmode vector
attr source rlcPduDelayDl
attr title "Delay at the rlc layer UL"
attr unit s
vector 163 SingleCell_Standalone.ue[3].cellularNic.nrRlc.um rlcPduPacketLossDl:vector ETV
attr recordingmode vector
attr source rlcPduPacketLossDl
attr title "rlc Packet Loss"
attr unit ""
vector 164 SingleCell_Standalone.ue[4].cellularNic.nrPhy averageCqiDl:vector ETV
attr recordingmode vector
attr source averageCqiDl
attr title "Average Cqi reported in DL"
attr unit cqi
vector 165 SingleCell_Standalone.ue[4].cellularNic.nrChannelModel[0] distance:vector ETV
attr recordingmode vector
attr source distance
attr title "distance between UE and serving base station"
attr unit meters
vector 166 SingleCell_Standalone.ue[4].cellularNic.nrChannelModel[0] rcvdSinrDl:vector ETV
attr recordingmode vector
attr source rcvdSinrDl
attr title "SINR measured at packet reception, DL"
attr unit dB
vector 167 SingleCell_Standalone.ue[4].cellularNic.nrMac receivedPacketFromLowerLayer:vector(packetBytes) ETV
attr interpolationmode none
attr recordingmode vector(packetBytes)
attr source receivedPacketFromLowerLayer
vector 168 SingleCell_Standalone.ue[3].cellularNic.nrRlc.um rlcThroughputDl:vector ETV
attr recordingmode vector
attr source rlcThroughputDl
attr title "Throughput at the rlc layer DL"
attr unit Bps
vector 169 SingleCell_Standalone.ue[3].cellularNic.nrRlc.um rlcPacketLossDl:vector ETV
attr recordingmode vector
attr source rlcPacketLossDl
attr title "rlc Packet Loss"
attr unit ""
vector 170 SingleCell_Standalone.ue[3].cellularNic.nrRlc.um rlcPacketLossTotal:vector ETV
attr recordingmode vector
attr source rlcPacketLossTotal
attr title "rlc Packet Loss"
attr unit ""
vector 171 SingleCell_Standalone.ue[3].cellularNic.nrRlc.um rlcDelayDl:vector ETV
attr recordingmode vector
attr source rlcDelayDl
attr title "Delay at the rlc layer DL"
attr unit s
vector 172 SingleCell_Standalone.ue[3].cellularNic.nrRlc.um sentPacketToUpperLayer:vector(packetBytes) ETV
attr interpolationmode none
attr recordingmode vector(packetBytes)
attr source sentPacketToUpperLayer
vector 173 SingleCell_Standalone.ue[3].cellularNic.pdcpRrc receivedPacketFromLowerLayer:vector(packetBytes) ETV
attr interpolationmode none
attr recordingmode vector(packetBytes)
attr source receivedPacketFromLowerLayer
vector 174 SingleCell_Standalone.ue[3].cellularNic.pdcpRrc sentPacketToUpperLayer:vector(packetBytes) ETV
attr interpolationmode none
attr recordingmode vector(packetBytes)
attr source sentPacketToUpperLayer
vector 175 SingleCell_Standalone.ue[3].udp packetReceived:vector(packetBytes) ETV
attr interpolationmode none
attr recordingmode vector(packetBytes)
attr source packetReceived
attr title "packets received, packetBytes"
vector 176 SingleCell_Standalone.ue[3].app[0] cbrReceivedBytes:vector ETV
attr recordingmode vector
attr source cbrReceivedBytesSignal
attr title "Bytes received at the application level"
attr unit Bps
vector 177 SingleCell_Standalone.ue[3].app[0] cbrFrameDelay:vector ETV
attr recordingmode vector
attr source cbrFrameDelaySignal
attr title "Cbr Frame Delay"
attr unit s
vector 178 SingleCell_Standalone.ue[3].app[0] cbrRcvdPkt:vector ETV
attr recordingmode vector
attr source cbrRcvdPkt
attr title "Received packet ID"
attr unit ""
vector 179 SingleCell_Standalone.ue[3].cellularNic.nrMac harqErrorRate_1st_Dl:vector ETV
attr recordingmode vector
attr source harqErrorRate_1st_Dl
attr title "Harq Error Rate Dl (1st tx)"
attr unit ""
vector 180 SingleCell_Standalone.ue[3].cellularNic.nrMac harqErrorRateDl:vector ETV
attr recordingmode vector
attr source harqErrorRateDl
attr title "Harq Error Rate Dl"
attr unit ""
vector 181 SingleCell_Standalone.ue[3].cellularNic.nrMac harqTxAttemptsDl:vector ETV
attr recordingmode vector
attr source harqTxAttemptsDl
attr title "Harq Tx Attempts Dl"
attr unit ""
vector 182 SingleCell_Standalone.ue[2].cellularNic.nrMac sentPacketToLowerLayer:vector(packetBytes) ETV
attr interpolationmode none
attr recordingmode vector(packetBytes)
attr source sentPacketToLowerLayer
vector 183 SingleCell_Standalone.ue[2].cellularNic.nrMac sentPacketToUpperLayer:vector(packetBytes) ETV
attr interpolationmode none
attr recordingmode vector(packetBytes)
attr source sentPacketToUpperLayer
vector 184 SingleCell_Standalone.ue[2].cellularNic.nrRlc.um receivedPacketFromLowerLayer:vector(packetBytes) ETV
attr interpolationmode none
attr recordingmode vector(packetBytes)
attr source receivedPacketFromLowerLayer
vector 185 SingleCell_Standalone.ue[2].cellularNic.nrRlc.um rlcPduThroughputDl:vector ETV
attr recordingmode vector
attr source rlcPduThroughputDl
attr title "Throughput at the rlc layer DL"
attr unit Bps
vector 186 SingleCell_Standalone.ue[2].cellularNic.nrRlc.um rlcPduDelayDl:vector ETV
attr recordingmode vector
attr source rlcPduDelayDl
attr title "Delay at the rlc layer UL"
attr unit s
vector 187 SingleCell_Standalone.ue[2].cellularNic.nrRlc.um rlcPduPacketLossDl:vector ETV
attr recordingmode vector
attr source rlcPduPacketLossDl
attr title "rlc Packet Loss"
attr unit ""
vector 188 SingleCell_Standalone.ue[0].cellularNic.nrChannelModel[0] measuredSinrUl:vector ETV
attr recordingmode vector
attr source measuredSinrUl
attr title "SINR measured at feedback computation, UL"
attr unit dB
vector 189 SingleCell_Standalone.ue[0].cellularNic.nrChannelModel[0] measuredSinrDl:vector ETV
attr recordingmode vector
attr source measuredSinrDl
attr title "SINR measured at feedback computation, DL"
attr unit dB
vector 190 SingleCell_Standalone.ue[0].cellularNic.nrChannelModel[1] measuredSinrUl:vector ETV
attr recordingmode vector
attr source measuredSinrUl
attr title "SINR measured at feedback computation, UL"
attr unit dB
vector 191 SingleCell_Standalone.ue[0].cellularNic.nrChannelModel[1] measuredSinrDl:vector ETV
attr recordingmode vector
attr source measuredSinrDl
attr title "SINR measured at feedback computation, DL"
attr unit dB
vector 192 SingleCell_Standalone.ue[1].cellularNic.nrChannelModel[0] measuredSinrUl:vector ETV
attr recordingmode vector
attr source measuredSinrUl
attr title "SINR measured at feedback computation, UL"
attr unit dB
vector 193 SingleCell_Standalone.ue[1].cellularNic.nrChannelModel[0] measuredSinrDl:vector ETV
attr recordingmode vector
attr source measuredSinrDl
attr title "SINR measured at feedback computation, DL"
attr unit dB
vector 194 SingleCell_Standalone.ue[1].cellularNic.nrChannelModel[1] measuredSinrUl:vector ETV
attr recordingmode vector
attr source measuredSinrUl
attr title "SINR measured at feedback computation, UL"
attr unit dB
vector 195 SingleCell_Standalone.ue[1].cellularNic.nrChannelModel[1] measuredSinrDl:vector ETV
attr recordingmode vector
attr source measuredSinrDl
attr title "SINR measured at feedback computation, DL"
attr unit dB
vector 196 SingleCell_Standalone.ue[2].cellularNic.nrChannelModel[0] measuredSinrUl:vector ETV
attr recordingmode vector
attr source measuredSinrUl
attr title "SINR measured at feedback computation, UL"
attr unit dB
vector 197 SingleCell_Standalone.ue[2].cellularNic.nrChannelModel[0] measuredSinrDl:vector ETV
attr recordingmode vector
attr source measuredSinrDl
attr title "SINR measured at feedback computation, DL"
attr unit dB
vector 198 SingleCell_Standalone.ue[2].cellularNic.nrChannelModel[1] measuredSinrUl:vector ETV
attr recordingmode vector
attr source measuredSinrUl
attr title "SINR measured at feedback computation, UL"
attr unit dB
vector 199 SingleCell_Standalone.ue[2].cellularNic.nrChannelModel[1] measuredSinrDl:vector ETV
attr recordingmode vector
attr source measuredSinrDl
attr title "SINR measured at feedback computation, DL"
attr unit dB
vector 200 SingleCell_Standalone.ue[3].cellularNic.nrChannelModel[0] measuredSinrUl:vector ETV
attr recordingmode vector
attr source measuredSinrUl
attr title "SINR measured at feedback computation, UL"
attr unit dB
vector 201 SingleCell_Standalone.ue[3].cellularNic.nrChannelModel[0] measuredSinrDl:vector ETV
attr recordingmode vector
attr source measuredSinrDl
attr title "SINR measured at feedback computation, DL"
attr unit dB
vector 202 SingleCell_Standalone.ue[3].cellularNic.nrChannelModel[1] measuredSinrUl:vector ETV
attr recordingmode vector
attr source measuredSinrUl
attr title "SINR measured at feedback computation, UL"
attr unit dB
vector 203 SingleCell_Standalone.ue[3].cellularNic.nrChannelModel[1] measuredSinrDl:vector ETV
attr recordingmode vector
attr source measuredSinrDl
attr title "SINR measured at feedback computation, DL"
attr unit dB
vector 204 SingleCell_Standalone.ue[4].cellularNic.nrChannelModel[0] measuredSinrUl:vector ETV
attr recordingmode vector
attr source measuredSinrUl
attr title "SINR measured at feedback computation, UL"
attr unit dB
vector 205 SingleCell_Standalone.ue[4].cellularNic.nrChannelModel[0] measuredSinrDl:vector ETV
attr recordingmode vector
attr source measuredSinrDl
attr title "SINR measured at feedback computation, DL"
attr unit dB
vector 206 SingleCell_Standalone.ue[4].cellularNic.nrChannelModel[1] measuredSinrUl:vector ETV
attr recordingmode vector
attr source measuredSinrUl
attr title "SINR measured at feedback computation, UL"
attr unit dB
vector 207 SingleCell_Standalone.ue[4].cellularNic.nrChannelModel[1] measuredSinrDl:vector ETV
attr recordingmode vector
attr source measuredSinrDl
attr title "SINR measured at feedback computation, DL"
attr unit dB
vector 208 SingleCell_Standalone.ue[0].cellularNic.nrPhy averageCqiDl:vector ETV
attr recordingmode vector
attr source averageCqiDl
attr title "Average Cqi reported in DL"
attr unit cqi
vector 209 SingleCell_Standalone.ue[0].cellularNic.nrChannelModel[0] distance:vector ETV
attr recordingmode vector
attr source distance
attr title "distance between UE and serving base station"
attr unit meters
vector 210 SingleCell_Standalone.ue[0].cellularNic.nrChannelModel[0] rcvdSinrDl:vector ETV
attr recordingmode vector
attr source rcvdSinrDl
attr title "SINR measured at packet reception, DL"
attr unit dB
vector 211 SingleCell_Standalone.ue[0].cellularNic.nrMac receivedPacketFromLowerLayer:vector(packetBytes) ETV
attr interpolationmode none
attr recordingmode vector(packetBytes)
attr source receivedPacketFromLowerLayer
vector 212 SingleCell_Standalone.bgCell[0].bgTrafficGenerator.bgUE[8].generator bgAverageCqiDl:vector ETV
attr recordingmode vector
attr source bgAverageCqiDl
attr title "Average DL CQI for background UEs"
attr unit ""
vector 213 SingleCell_Standalone.bgCell[0].bgTrafficGenerator.bgUE[8].generator bgHarqErrorRateDl:vector ETV
attr recordingmode vector
attr source bgHarqErrorRateDl
attr title "Average DL HARQ error rate for background UEs"
attr unit ""
vector 214 SingleCell_Standalone.ue[2].cellularNic.nrRlc.um rlcThroughputDl:vector ETV
attr recordingmode vector
attr source rlcThroughputDl
attr title "Throughput at the rlc layer DL"
attr unit Bps
vector 215 SingleCell_Standalone.ue[2].cellularNic.nrRlc.um rlcPacketLossDl:vector ETV
attr recordingmode vector
attr source rlcPacketLossDl
attr title "rlc Packet Loss"
attr unit ""
vector 216 SingleCell_Standalone.ue[2].cellularNic.nrRlc.um rlcPacketLossTotal:vector ETV
attr recordingmode vector
attr source rlcPacketLossTotal
attr title "rlc Packet Loss"
attr unit ""
vector 217 SingleCell_Standalone.ue[2].cellularNic.nrRlc.um rlcDelayDl:vector ETV
attr recordingmode vector
attr source rlcDelayDl
attr title "Delay at the rlc layer DL"
attr unit s
vector 218 SingleCell_Standalone.ue[2].cellularNic.nrRlc.um sentPacketToUpperLayer:vector(packetBytes) ETV
attr interpolationmode none
attr recordingmode vector(packetBytes)
attr source sentPacketToUpperLayer
vector 219 SingleCell_Standalone.ue[2].cellularNic.pdcpRrc receivedPacketFromLowerLayer:vector(packetBytes) ETV
attr interpolationmode none
attr recordingmode vector(packetBytes)
attr source receivedPacketFromLowerLayer
vector 220 SingleCell_Standalone.ue[2].cellularNic.pdcpRrc sentPacketToUpperLayer:vector(packetBytes) ETV
attr interpolationmode none
attr recordingmode vector(packetBytes)
attr source sentPacketToUpperLayer
vector 221 SingleCell_Standalone.ue[2].udp packetReceived:vector(packetBytes) ETV
attr interpolationmode none
attr recordingmode vector(packetBytes)
attr source packetReceived
attr title "packets received, packetBytes"
vector 222 SingleCell_Standalone.ue[2].app[0] cbrReceivedBytes:vector ETV
attr recordingmode vector
attr source cbrReceivedBytesSignal
attr title "Bytes received at the application level"
attr unit Bps
vector 223 SingleCell_Standalone.ue[2].app[0] cbrFrameDelay:vector ETV
attr recordingmode vector
attr source cbrFrameDelaySignal
attr title "Cbr Frame Delay"
attr unit s
vector 224 SingleCell_Standalone.ue[2].app[0] cbrRcvdPkt:vector ETV
attr recordingmode vector
attr source cbrRcvdPkt
attr title "Received packet ID"
attr unit ""
vector 225 SingleCell_Standalone.ue[4].cellularNic.nrMac sentPacketToLowerLayer:vector(packetBytes) ETV
attr interpolationmode none
attr recordingmode vector(packetBytes)
attr source sentPacketToLowerLayer
vector 226 SingleCell_Standalone.ue[4].cellularNic.nrMac sentPacketToUpperLayer:vector(packetBytes) ETV
attr interpolationmode none
attr recordingmode vector(packetBytes)
attr source sentPacketToUpperLayer
vector 227 SingleCell_Standalone.ue[4].cellularNic.nrRlc.um receivedPacketFromLowerLayer:vector(packetBytes) ETV
attr interpolationmode none
attr recordingmode vector(packetBytes)
attr source receivedPacketFromLowerLayer
vector 228 SingleCell_Standalone.ue[4].cellularNic.nrRlc.um rlcPduThroughputDl:vector ETV
attr recordingmode vector
attr source rlcPduThroughputDl
attr title "Throughput at the rlc layer DL"
attr unit Bps
vector 229 SingleCell_Standalone.ue[4].cellularNic.nrRlc.um rlcPduDelayDl:vector ETV
attr recordingmode vector
attr source rlcPduDelayDl
attr title "Delay at the rlc layer UL"
attr unit s
vector 230 SingleCell_Standalone.ue[4].cellularNic.nrRlc.um rlcPduPacketLossDl:vector ETV
attr recordingmode vector
attr source rlcPduPacketLossDl
attr title "rlc Packet Loss"
attr unit ""
vector 231 SingleCell_Standalone.ue[2].cellularNic.nrMac harqErrorRate_1st_Dl:vector ETV
attr recordingmode vector
attr source harqErrorRate_1st_Dl
attr title "Harq Error Rate Dl (1st tx)"
attr unit ""
vector 232 SingleCell_Standalone.ue[2].cellularNic.nrMac harqErrorRateDl:vector ETV
attr recordingmode vector
attr source harqErrorRateDl
attr title "Harq Error Rate Dl"
attr unit ""
vector 233 SingleCell_Standalone.ue[2].cellularNic.nrMac harqTxAttemptsDl:vector ETV
attr recordingmode vector
attr source harqTxAttemptsDl
attr title "Harq Tx Attempts Dl"
attr unit ""
vector 234 SingleCell_Standalone.ue[4].cellularNic.nrMac harqErrorRate_1st_Dl:vector ETV
attr recordingmode vector
attr source harqErrorRate_1st_Dl
attr title "Harq Error Rate Dl (1st tx)"
attr unit ""
vector 235 SingleCell_Standalone.ue[4].cellularNic.nrMac harqErrorRateDl:vector ETV
attr recordingmode vector
attr source harqErrorRateDl
attr title "Harq Error Rate Dl"
attr unit ""
vector 236 SingleCell_Standalone.ue[4].cellularNic.nrMac harqTxAttemptsDl:vector ETV
attr recordingmode vector
attr source harqTxAttemptsDl
attr title "Harq Tx Attempts Dl"
attr unit ""
vector 237 SingleCell_Standalone.ue[1].cellularNic.nrPhy averageCqiDl:vector ETV
attr recordingmode vector
attr source averageCqiDl
attr title "Average Cqi reported in DL"
attr unit cqi
vector 238 SingleCell_Standalone.ue[1].cellularNic.nrChannelModel[0] distance:vector ETV
attr recordingmode vector
attr source distance
attr title "distance between UE and serving base station"
attr unit meters
vector 239 SingleCell_Standalone.ue[1].cellularNic.nrChannelModel[0] rcvdSinrDl:vector ETV
attr recordingmode vector
attr source rcvdSinrDl
attr title "SINR measured at packet reception, DL"
attr unit dB
vector 240 SingleCell_Standalone.ue[1].cellularNic.nrMac receivedPacketFromLowerLayer:vector(packetBytes) ETV
attr interpolationmode none
attr recordingmode vector(packetBytes)
attr source receivedPacketFromLowerLayer
vector 241 SingleCell_Standalone.ue[0].cellularNic.nrChannelModel[1] distance:vector ETV
attr recordingmode vector
attr source distance
attr title "distance between UE and serving base station"
attr unit meters
vector 242 SingleCell_Standalone.ue[0].cellularNic.nrChannelModel[1] rcvdSinrDl:vector ETV
attr recordingmode vector
attr source rcvdSinrDl
attr title "SINR measured at packet reception, DL"
attr unit dB
vector 243 SingleCell_Standalone.ue[0].cellularNic.nrMac sentPacketToLowerLayer:vector(packetBytes) ETV
attr interpolationmode none
attr recordingmode vector(packetBytes)
attr source sentPacketToLowerLayer
vector 244 SingleCell_Standalone.ue[0].cellularNic.nrMac sentPacketToUpperLayer:vector(packetBytes) ETV
attr interpolationmode none
attr recordingmode vector(packetBytes)
attr source sentPacketToUpperLayer
vector 245 SingleCell_Standalone.ue[0].cellularNic.nrRlc.um receivedPacketFromLowerLayer:vector(packetBytes) ETV
attr interpolationmode none
attr recordingmode vector(packetBytes)
attr source receivedPacketFromLowerLayer
vector 246 SingleCell_Standalone.ue[0].cellularNic.nrRlc.um rlcPduThroughputDl:vector ETV
attr recordingmode vector
attr source rlcPduThroughputDl
attr title "Throughput at the rlc layer DL"
attr unit Bps
vector 247 SingleCell_Standalone.ue[0].cellularNic.nrRlc.um rlcPduDelayDl:vector ETV
attr recordingmode vector
attr source rlcPduDelayDl
attr title "Delay at the rlc layer UL"
attr unit s
vector 248 SingleCell_Standalone.ue[0].cellularNic.nrRlc.um rlcPduPacketLossDl:vector ETV
attr recordingmode vector
attr source rlcPduPacketLossDl
attr title "rlc Packet Loss"
attr unit ""
vector 249 SingleCell_Standalone.ue[4].cellularNic.nrRlc.um rlcThroughputDl:vector ETV
attr recordingmode vector
attr source rlcThroughputDl
attr title "Throughput at the rlc layer DL"
attr unit Bps
vector 250 SingleCell_Standalone.ue[4].cellularNic.nrRlc.um rlcPacketLossDl:vector ETV
attr recordingmode vector
attr source rlcPacketLossDl
attr title "rlc Packet Loss"
attr unit ""
vector 251 SingleCell_Standalone.ue[4].cellularNic.nrRlc.um rlcPacketLossTotal:vector ETV
attr recordingmode vector
attr source rlcPacketLossTotal
attr title "rlc Packet Loss"
attr unit ""
vector 252 SingleCell_Standalone.ue[4].cellularNic.nrRlc.um rlcDelayDl:vector ETV
attr recordingmode vector
attr source rlcDelayDl
attr title "Delay at the rlc layer DL"
attr unit s
vector 253 SingleCell_Standalone.ue[4].cellularNic.nrRlc.um sentPacketToUpperLayer:vector(packetBytes) ETV
attr interpolationmode none
attr recordingmode vector(packetBytes)
attr source sentPacketToUpperLayer
vector 254 SingleCell_Standalone.ue[4].cellularNic.pdcpRrc receivedPacketFromLowerLayer:vector(packetBytes) ETV
attr interpolationmode none
attr recordingmode vector(packetBytes)
attr source receivedPacketFromLowerLayer
vector 255 SingleCell_Standalone.ue[4].cellularNic.pdcpRrc sentPacketToUpperLayer:vector(packetBytes) ETV
attr interpolationmode none
attr recordingmode vector(packetBytes)
attr source sentPacketToUpperLayer
vector 256 SingleCell_Standalone.ue[4].udp packetReceived:vector(packetBytes) ETV
attr interpolationmode none
attr recordingmode vector(packetBytes)
attr source packetReceived
attr title "packets received, packetBytes"
vector 257 SingleCell_Standalone.ue[4].app[0] cbrReceivedBytes:vector ETV
attr recordingmode vector
attr source cbrReceivedBytesSignal
attr title "Bytes received at the application level"
attr unit Bps
vector 258 SingleCell_Standalone.ue[4].app[0] cbrFrameDelay:vector ETV
attr recordingmode vector
attr source cbrFrameDelaySignal
attr title "Cbr Frame Delay"
attr unit s
vector 259 SingleCell_Standalone.ue[4].app[0] cbrRcvdPkt:vector ETV
attr recordingmode vector
attr source cbrRcvdPkt
attr title "Received packet ID"
attr unit ""
vector 260 SingleCell_Standalone.bgCell[1].bgTrafficGenerator.bgUE[3].generator bgAverageCqiDl:vector ETV
attr recordingmode vector
attr source bgAverageCqiDl
attr title "Average DL CQI for background UEs"
attr unit ""
vector 261 SingleCell_Standalone.bgCell[1].bgTrafficGenerator.bgUE[3].generator bgHarqErrorRateDl:vector ETV
attr recordingmode vector
attr source bgHarqErrorRateDl
attr title "Average DL HARQ error rate for background UEs"
attr unit ""
vector 262 SingleCell_Standalone.ue[0].cellularNic.nrRlc.um rlcThroughputDl:vector ETV
attr recordingmode vector
attr source rlcThroughputDl
attr title "Throughput at the rlc layer DL"
attr unit Bps
vector 263 SingleCell_Standalone.ue[0].cellularNic.nrRlc.um rlcPacketLossDl:vector ETV
attr recordingmode vector
attr source rlcPacketLossDl
attr title "rlc Packet Loss"
attr unit ""
vector 264 SingleCell_Standalone.ue[0].cellularNic.nrRlc.um rlcPacketLossTotal:vector ETV
attr recordingmode vector
attr source rlcPacketLossTotal
attr title "rlc Packet Loss"
attr unit ""
vector 265 SingleCell_Standalone.ue[0].cellularNic.nrRlc.um rlcDelayDl:vector ETV
attr recordingmode vector
attr source rlcDelayDl
attr title "Delay at the rlc layer DL"
attr unit s
vector 266 SingleCell_Standalone.ue[0].cellularNic.nrRlc.um sentPacketToUpperLayer:vector(packetBytes) ETV
attr interpolationmode none
attr recordingmode vector(packetBytes)
attr source sentPacketToUpperLayer
vector 267 SingleCell_Standalone.ue[0].cellularNic.pdcpRrc receivedPacketFromLowerLayer:vector(packetBytes) ETV
attr interpolationmode none
attr recordingmode vector(packetBytes)
attr source receivedPacketFromLowerLayer
vector 268 SingleCell_Standalone.ue[0].cellularNic.pdcpRrc sentPacketToUpperLayer:vector(packetBytes) ETV
attr interpolationmode none
attr recordingmode vector(packetBytes)
attr source sentPacketToUpperLayer
vector 269 SingleCell_Standalone.ue[0].udp packetReceived:vector(packetBytes) ETV
attr interpolationmode none
attr recordingmode vector(packetBytes)
attr source packetReceived
attr title "packets received, packetBytes"
vector 270 SingleCell_Standalone.ue[0].app[0] cbrReceivedBytes:vector ETV
attr recordingmode vector
attr source cbrReceivedBytesSignal
attr title "Bytes received at the application level"
attr unit Bps
vector 271 SingleCell_Standalone.ue[0].app[0] cbrFrameDelay:vector ETV
attr recordingmode vector
attr source cbrFrameDelaySignal
attr title "Cbr Frame Delay"
attr unit s
vector 272 SingleCell_Standalone.ue[0].app[0] cbrRcvdPkt:vector ETV
attr recordingmode vector
attr source cbrRcvdPkt
attr title "Received packet ID"
attr unit ""
vector 273 SingleCell_Standalone.bgCell[0].bgTrafficGenerator.bgUE[9].generator bgAverageCqiDl:vector ETV
attr recordingmode vector
attr source bgAverageCqiDl
attr title "Average DL CQI for background UEs"
attr unit ""
vector 274 SingleCell_Standalone.bgCell[0].bgTrafficGenerator.bgUE[9].generator bgHarqErrorRateDl:vector ETV
attr recordingmode vector
attr source bgHarqErrorRateDl
attr title "Average DL HARQ error rate for background UEs"
attr unit ""
vector 275 SingleCell_Standalone.ue[1].app[0] cbrReceivedBytes:vector ETV
attr recordingmode vector
attr source cbrReceivedBytesSignal
attr title "Bytes received at the application level"
attr unit Bps
vector 276 SingleCell_Standalone.bgCell[0].bgTrafficGenerator.bgUE[2].generator bgAverageCqiDl:vector ETV
attr recordingmode vector
attr source bgAverageCqiDl
attr title "Average DL CQI for background UEs"
attr unit ""
vector 277 SingleCell_Standalone.bgCell[0].bgTrafficGenerator.bgUE[2].generator bgHarqErrorRateDl:vector ETV
attr recordingmode vector
attr source bgHarqErrorRateDl
attr title "Average DL HARQ error rate for background UEs"
attr unit ""
vector 278 SingleCell_Standalone.bgCell[0].bgTrafficGenerator.bgUE[1].generator bgAverageCqiDl:vector ETV
attr recordingmode vector
attr source bgAverageCqiDl
attr title "Average DL CQI for background UEs"
attr unit ""
vector 279 SingleCell_Standalone.bgCell[0].bgTrafficGenerator.bgUE[1].generator bgHarqErrorRateDl:vector ETV
attr recordingmode vector
attr source bgHarqErrorRateDl
attr title "Average DL HARQ error rate for background UEs"
attr unit ""
vector 280 SingleCell_Standalone.bgCell[1].bgTrafficGenerator.bgUE[9].generator bgAverageCqiDl:vector ETV
attr recordingmode vector
attr source bgAverageCqiDl
attr title "Average DL CQI for background UEs"
attr unit ""
vector 281 SingleCell_Standalone.bgCell[1].bgTrafficGenerator.bgUE[9].generator bgHarqErrorRateDl:vector ETV
attr recordingmode vector
attr source bgHarqErrorRateDl
attr title "Average DL HARQ error rate for background UEs"
attr unit ""
vector 282 SingleCell_Standalone.bgCell[0].bgTrafficGenerator.bgUE[7].generator bgAverageCqiDl:vector ETV
attr recordingmode vector
attr source bgAverageCqiDl
attr title "Average DL CQI for background UEs"
attr unit ""
vector 283 SingleCell_Standalone.bgCell[0].bgTrafficGenerator.bgUE[7].generator bgHarqErrorRateDl:vector ETV
attr recordingmode vector
attr source bgHarqErrorRateDl
attr title "Average DL HARQ error rate for background UEs"
attr unit ""
vector 284 SingleCell_Standalone.bgCell[0].bgTrafficGenerator.bgUE[5].generator bgAverageCqiDl:vector ETV
attr recordingmode vector
attr source bgAverageCqiDl
attr title "Average DL CQI for background UEs"
attr unit ""
vector 285 SingleCell_Standalone.bgCell[0].bgTrafficGenerator.bgUE[5].generator bgHarqErrorRateDl:vector ETV
attr recordingmode vector
attr source bgHarqErrorRateDl
attr title "Average DL HARQ error rate for background UEs"
attr unit ""
vector 286 SingleCell_Standalone.server.ppp[0].queue incomingDataRate:vector ETV
attr interpolationmode linear
attr recordingmode vector
attr source throughput(packetPushStarted)
attr title "incoming datarate"
attr unit bps
vector 287 SingleCell_Standalone.server.ppp[0].queue outgoingDataRate:vector ETV
attr interpolationmode linear
attr recordingmode vector
attr source throughput(packetPulled)
attr title "outgoing datarate"
attr unit bps
vector 288 SingleCell_Standalone.router.ppp[1].queue incomingDataRate:vector ETV
attr interpolationmode linear
attr recordingmode vector
attr source throughput(packetPushStarted)
attr title "incoming datarate"
attr unit bps
vector 289 SingleCell_Standalone.router.ppp[1].queue outgoingDataRate:vector ETV
attr interpolationmode linear
attr recordingmode vector
attr source throughput(packetPulled)
attr title "outgoing datarate"
attr unit bps
vector 290 SingleCell_Standalone.upf.ppp[0].queue incomingDataRate:vector ETV
attr interpolationmode linear
attr recordingmode vector
attr source throughput(packetPushStarted)
attr title "incoming datarate"
attr unit bps
vector 291 SingleCell_Standalone.upf.ppp[0].queue outgoingDataRate:vector ETV
attr interpolationmode linear
attr recordingmode vector
attr source throughput(packetPulled)
attr title "outgoing datarate"
attr unit bps
vector 292 SingleCell_Standalone.iUpf.ppp[1].queue incomingDataRate:vector ETV
attr interpolationmode linear
attr recordingmode vector
attr source throughput(packetPushStarted)
attr title "incoming datarate"
attr unit bps
vector 293 SingleCell_Standalone.iUpf.ppp[1].queue outgoingDataRate:vector ETV
attr interpolationmode linear
attr recordingmode vector
attr source throughput(packetPulled)
attr title "outgoing datarate"
attr unit bps
vector 294 SingleCell_Standalone.bgCell[0].bgTrafficGenerator.bgUE[4].generator bgAverageCqiDl:vector ETV
attr recordingmode vector
attr source bgAverageCqiDl
attr title "Average DL CQI for background UEs"
attr unit ""
vector 295 SingleCell_Standalone.bgCell[0].bgTrafficGenerator.bgUE[4].generator bgHarqErrorRateDl:vector ETV
attr recordingmode vector
attr source bgHarqErrorRateDl
attr title "Average DL HARQ error rate for background UEs"
attr unit ""
vector 296 SingleCell_Standalone.ue[3].cellularNic.nrMac harqErrorRate_2nd_Dl:vector ETV
attr recordingmode vector
attr source harqErrorRate_2nd_Dl
attr title "Harq Error Rate Dl (2nd tx)"
attr unit ""
vector 297 SingleCell_Standalone.bgCell[0].bgTrafficGenerator.bgUE[3].generator bgAverageCqiDl:vector ETV
attr recordingmode vector
attr source bgAverageCqiDl
attr title "Average DL CQI for background UEs"
attr unit ""
vector 298 SingleCell_Standalone.bgCell[0].bgTrafficGenerator.bgUE[3].generator bgHarqErrorRateDl:vector ETV
attr recordingmode vector
attr source bgHarqErrorRateDl
attr title "Average DL HARQ error rate for background UEs"
attr unit ""
vector 299 SingleCell_Standalone.ue[2].cellularNic.nrChannelModel[1] distance:vector ETV
attr recordingmode vector
attr source distance
attr title "distance between UE and serving base station"
attr unit meters
vector 300 SingleCell_Standalone.ue[2].cellularNic.nrChannelModel[1] rcvdSinrDl:vector ETV
attr recordingmode vector
attr source rcvdSinrDl
attr title "SINR measured at packet reception, DL"
attr unit dB
vector 301 SingleCell_Standalone.ue[3].cellularNic.nrMac harqErrorRate_3rd_Dl:vector ETV
attr recordingmode vector
attr source harqErrorRate_3rd_Dl
attr title "Harq Error Rate Dl (3rd tx)"
attr unit ""
0	73085 91331 0 443805 1 7.944276156826 3478 0 0 0 0
1	164416 91331 0 443805 1 7.944276156826 3478 0 0 0 0
2	255747 9 0 0 1 1 1 0 0 0 0
3	255756 9 0 0 1 1 1 0 0 0 0
4	255765 9 0 0 1 1 1 0 0 0 0
5	255774 45 0 0 1 1 5 0 0 0 0
6	255819 45 0 0 1 1 5 0 0 0 0
7	255864 91331 0 443809 1 7.944277034826 3478 0 0 0 0
8	347195 91331 0 443809 1 7.944277034826 3478 0 0 0 0
9	438526 91331 0 443816 1 7.944277912826 3478 0 0 0 0
10	529857 94809 0 443816 1 7.944277912826 3478 0 0 0 0
11	624666 50 0 0 1 1 5 0 0 0 0
12	624716 50 0 0 1 1 5 0 0 0 0
13	624766 10 0 0 1 1 1 0 0 0 0
14	624776 10 0 0 1 1 1 0 0 0 0
15	624786 10 0 0 1 1 1 0 0 0 0
16	624796 50 0 0 1 1 5 0 0 0 0
17	624846 50 0 0 1 1 5 0 0 0 0
18	624896 94809 0 443820 1 7.944278819626 3478 0 0 0 0
19	719705 94809 0 443820 1 7.944278819626 3478 0 0 0 0
20	814514 50 0 0 1 1 5 0 0 0 0
21	814564 50 0 0 1 1 5 0 0 0 0
22	814614 10 0 0 1 1 1 0 0 0 0
23	814624 10 0 0 1 1 1 0 0 0 0
24	814634 10 0 0 1 1 1 0 0 0 0
25	814644 50 0 0 1 1 5 0 0 0 0
26	814694 50 0 0 1 1 5 0 0 0 0
27	814744 50 0 0 1 1 5 0 0 0 0
28	814794 50 0 0 1 1 5 0 0 0 0
29	814844 104081 0 443824 1 7.944279726426 3474 0 3473 6032601 13969493049
30	918925 10 0 0 1 1 1 0 0 0 0
31	918935 10 0 0 1 1 1 0 0 0 0
32	918945 14396 0 443488 1 7.939 695 0 694 241165 111659395
33	933341 10 0 0 1 1 1 0 0 0 0
34	933351 10 0 0 1 1 1 0 0 0 0
35	933361 13637 0 443555 1 7.94 696 0 695 241860 112142420
36	946998 10 0 0 1 1 1 0 0 0 0
37	947008 10 0 0 1 1 1 0 0 0 0
38	947018 14417 0 443860 1 7.945 696 0 695 241860 112142420
39	961435 10 0 0 1 1 1 0 0 0 0
40	961445 10 0 0 1 1 1 0 0 0 0
41	961455 14416 0 443736 1 7.943 696 0 695 241860 112142420
42	975871 10 0 0 1 1 1 0 0 0 0
43	975881 10 0 0 1 1 1 0 0 0 0
44	975891 14396 0 443379 1 7.937 695 0 694 241165 111659395
45	990287 10 0 0 1 1 1 0 0 0 0
46	990297 10 0 0 1 1 1 0 0 0 0
47	990307 130409 54990 443879 1 7.946 6947 0 0 0 0
48	1120716 54017 54990 443473 1 7.939 2860 5 13 22340 197636
49	1174733 53478 54990 443473 1 7.939 2860 0 1 252 252
50	1228211 62829 54990 443879 1 7.946 3322 3 13 22996 206620
51	1291040 62180 54990 443879 1 7.946 3322 0 1 296 296
52	1353220 130409 54990 443879 1 7.946 6947 6 6 41682 250092
53	1483629 130409 54991 443880 1 7.946 6947 0 0 0 0
54	1614038 26233 54991 443712 1 7.943 1374 4 13 12210 128220
55	1640271 25671 54991 443712 1 7.943 1374 0 1 142 142
56	1665942 56233 54991 443880 1 7.946 2953 6 11 21577 169455
57	1722175 55584 54991 443880 1 7.946 2953 0 1 287 287
58	1777759 130409 54991 443880 1 7.946 6947 6 6 41682 250092
59	1908168 130409 54992 443881 1 7.946 6947 0 0 0 0
60	2038577 130410 54992 443881 1 7.946 6947 0 11 29967 151991
61	2168987 156676 54992 443881 1 7.946 8338 1 1 8338 8338
62	2325663 156677 54994 443883 1 7.946 8338 0 0 0 0
63	2482340 171979 54994 443883 1 7.946 8338 40 868 3591422 2162212964
64	2654319 277157 54996 443885 1 7.946 11811 40 1031 7172085 5853876517
65	2931476 25451 55000 443548 1 7.94 1389 1 1 1389 1389
66	2956927 189950 55000 443895 1 7.946 8335 0.004 0.016 33.430000000003 0.134692
67	3146877 28229 55000 443548 1 7.94 1389 471 562 717373 373375231
68	3175106 28229 55003 443551 1 7.94 1389 471 562 717373 373375231
69	3203335 25453 55003 443551 1 7.94 1389 0 0 nan nan
70	3228788 31007 55003 443551 1 7.94 1389 0.004 0.004 5.5559999999998 0.022224
71	3259795 21369 55003 443551 1 7.94 695 117430.54755043 inf inf inf
72	3281164 12345 55003 443551 1 7.94 695 0 0 0 0
73	3293509 12345 55003 443551 1 7.94 695 0 0 0 0
74	3305854 21380 55003 443551 1 7.94 695 0.005720273574 0.005720273574 3.97559013393 0.022741463184175
75	3327234 14430 55003 443551 1 7.94 695 1029 1029 715155 735894495
76	3341664 25451 55003 443551 1 7.94 1389 0 0 0 0
77	3367115 14430 55004 443552 1 7.94 695 1029 1029 715155 735894495
78	3381545 14430 55004 443552 1 7.94 695 1028 1028 714460 734464880
79	3395975 14430 55007 443555 1 7.94 695 1008 1008 700560 706164480
80	3410405 21380 55008 443556 1 7.94 695 0.005723843174 0.005723843174 3.97807100593 0.022769854572979
81	3431785 13732 55008 443556 1 7.94 695 97 791 308580 164984660
82	3445517 172292 55015 443899 1 7.946 8353 42 870 3621148 2187965504
83	3617809 372122 55018 443912 1 7.946 19925 1 1 19925 19925
84	3989931 38557 55018 443586 1 7.94 2083 0 0 0 0
85	4028488 38557 55018 443586 1 7.94 2083 0 0 0 0
86	4067045 38557 55018 443586 1 7.94 2083 1 1 2083 2083
87	4105602 25469 55020 443649 1 7.941 1390 0 0 0 0
88	4131071 25469 55020 443649 1 7.941 1390 0 0 0 0
89	4156540 25469 55020 443649 1 7.941 1390 1 1 1390 1390
90	4182009 27139 55021 443589 1 7.94 1404 15 15 21060 315900
91	4209148 45391 55021 443589 1 7.94 1404 491.26085131628 491.26085131628 689730.23524804 338837462.54654
92	4254539 43292 55021 443589 1 7.94 1404 39.07556322887 43.6469991765 58039.238756936 2406588.9192261
93	4297831 28543 55022 443590 1 7.94 1404 167 870 732895 556024955
94	4326374 105178 55028 443803 1.000926239686 7.944276156826 3473 1008 1008 3500784 3528790272
95	4431552 105178 55030 443805 1.000926239686 7.944276156826 3473 8224 8224 28561952 234893493248
96	4536730 94759 55030 443805 1.000926239686 7.944276156826 3473 0 0 0 0
97	4631489 105178 55030 443805 1.000926239686 7.944276156826 3473 8224 8224 28561952 234893493248
98	4736667 105178 55030 443805 1.000926239686 7.944276156826 3473 1028 1028 3570244 3670210832
99	4841845 189518 55030 443806 1.000926239686 7.944276984826 6946 0 1 3473 3473
100	5031363 108651 55030 443805 1.000926239686 7.944276156826 3473 1035 1035 3594555 3720364425
101	5140014 108651 55032 443807 1.000927117686 7.944277034826 3473 1035 1035 3594555 3720364425
102	5248665 108651 55032 443807 1.000927117686 7.944277034826 3473 1028 1028 3570244 3670210832
103	5357316 108651 55034 443809 1.000927117686 7.944277034826 3473 8224 8224 28561952 234893493248
104	5465967 98232 55034 443809 1.000927117686 7.944277034826 3473 0 0 0 0
105	5564199 108651 55034 443809 1.000927117686 7.944277034826 3473 8224 8224 28561952 234893493248
106	5672850 108651 55034 443809 1.000927117686 7.944277034826 3473 1028 1028 3570244 3670210832
107	5781501 196464 55034 443810 1.000927117686 7.944277862826 6946 0 1 3473 3473
108	5977965 108651 55034 443809 1.000927117686 7.944277034826 3473 1035 1035 3594555 3720364425
109	6086616 108651 55036 443811 1.000927995686 7.944277912826 3473 1035 1035 3594555 3720364425
110	6195267 108651 55036 443811 1.000927995686 7.944277912826 3473 1028 1028 3570244 3670210832
111	6303918 108651 55039 443814 1.000927995686 7.944277912826 3473 1044 1044 3625812 3785347728
112	6412569 108651 55041 443816 1.000927995686 7.944277912826 3473 8512 8512 29562176 251633242112
113	6521220 98232 55041 443816 1.000927995686 7.944277912826 3473 0 0 0 0
114	6619452 108651 55041 443816 1.000927995686 7.944277912826 3473 8512 8512 29562176 251633242112
115	6728103 108651 55041 443816 1.000927995686 7.944277912826 3473 1064 1064 3695272 3931769408
116	6836754 196464 55041 443817 1.000927995686 7.944278769626 6946 0 1 3473 3473
117	7033218 108651 55041 443816 1.000927995686 7.944277912826 3473 1071 1071 3719583 3983673393
118	7141869 108651 55043 443818 1.000928902486 7.944278819626 3473 1071 1071 3719583 3983673393
119	7250520 108651 55043 443818 1.000928902486 7.944278819626 3473 1064 1064 3695272 3931769408
120	7359171 108651 55045 443820 1.000928902486 7.944278819626 3473 8512 8512 29562176 251633242112
121	7467822 98232 55045 443820 1.000928902486 7.944278819626 3473 0 0 0 0
122	7566054 108651 55045 443820 1.000928902486 7.944278819626 3473 8512 8512 29562176 251633242112
123	7674705 108651 55045 443820 1.000928902486 7.944278819626 3473 1064 1064 3695272 3931769408
124	7783356 196464 55045 443821 1.000928902486 7.944279676426 6946 0 1 3473 3473
125	7979820 108651 55045 443820 1.000928902486 7.944278819626 3473 1071 1071 3719583 3983673393
126	8088471 108651 55047 443822 1.000929809286 7.944279726426 3473 1071 1071 3719583 3983673393
127	8197122 108651 55047 443822 1.000929809286 7.944279726426 3473 1064 1064 3695272 3931769408
128	8305773 108651 55049 443824 1.000929809286 7.944279726426 3473 1044 1044 3625812 3785347728
129	8414424 108651 55052 443827 1.000929809286 7.944279726426 3473 1028 1028 3570244 3670210832
130	8523075 108651 55052 443827 1.000929809286 7.944279726426 3473 1029 1029 3573717 3677354793
131	8631726 108651 55053 443828 1.000929809286 7.944279726426 3473 1029 1029 3573717 3677354793
132	8740377 46658 55057 443657 1.001 7.942 2291 6 14 22462 246428
133	8787035 45510 55057 443657 1.001 7.942 2291 0 1 254 254
[...]
65	14171837 7596 444035 558914 7.949 10 412 1 1 412 412
66	14179433 56482 443935 558914 7.947 10 2466 0.004 0.01 9.8879999999994 0.039792
67	14235915 8420 444035 558914 7.949 10 412 471 562 212798 110763110
68	14244335 8420 444038 558917 7.949 10 412 471 562 212798 110763110
69	14252755 7596 444038 558917 7.949 10 412 0 0 0 0
70	14260351 9244 444038 558917 7.949 10 412 0.004 0.004 1.648 0.0065920000000001
71	14269595 6490 444120 558917 7.95 10 206 114104.66666667 117409.64028777 23816851.295043 2753791615855.8
72	14276085 3682 444120 558917 7.95 10 206 0 0 0 0
73	14279767 3682 444120 558917 7.95 10 206 0 0 0 0
74	14283449 6360 444120 558917 7.95 10 206 0.005720273574 0.005720273574 1.178376356244 0.0067406351308489
75	14289809 4300 444120 558917 7.95 10 206 1029 1029 211974 218121246
76	14294109 7596 444038 558917 7.949 10 412 0 0 0 0
77	14301705 4300 444121 558918 7.95 10 206 1029 1029 211974 218121246
78	14306005 4300 444121 558918 7.95 10 206 1028 1028 211768 217697504
79	14310305 4300 444124 558921 7.95 10 206 1008 1008 207648 209309184
80	14314605 6360 444125 558922 7.95 10 206 0.005723843174 0.005723843174 1.179111693844 0.0067490504201926
81	14320965 4094 444125 558922 7.95 10 206 792 997 184267 165555299
82	14325059 51169 444009 558929 7.948 10 2467 42 870 1069952 646924888
83	14376228 110790 443914 558934 7.946 10 5896 1 1 5896 5896
84	14487018 11510 444012 558932 7.948 10 618 0 0 0 0
85	14498528 11510 444012 558932 7.948 10 618 0 0 0 0
86	14510038 11510 444012 558932 7.948 10 618 1 1 618 618
87	14521548 7577 444137 558934 7.95 10 411 0 0 0 0
88	14529125 7577 444137 558934 7.95 10 411 0 0 0 0
89	14536702 7577 444137 558934 7.95 10 411 1 1 411 411
90	14544279 8088 444049 558935 7.949 10 416 15 15 6240 93600
91	14552367 13496 444049 558935 7.949 10 416 491.26085131628 491.26085131628 204364.51414757 100396285.19897
92	14565863 12874 444049 558935 7.949 10 416 39.07556322887 43.6469991765 17197.150108422 713091.39539257
93	14578737 8504 444050 558936 7.949 10 416 167 870 217102 164694134
94	14587241 31220 443961 558875 7.947353599621 9.9990433593 1027 1008 1008 1035216 1043497728
95	14618461 31220 443963 558877 7.947353599621 9.9990433593 1027 8224 8224 8446048 69460298752
96	14649681 28139 443963 558877 7.947353599621 9.9990433593 1027 0 0 0 0
97	14677820 31220 443963 558877 7.947353599621 9.9990433593 1027 8224 8224 8446048 69460298752
98	14709040 31220 443963 558877 7.947353599621 9.9990433593 1027 1028 1028 1055756 1085317168
99	14740260 56278 443963 558878 7.947353599621 9.9990441873 2054 0 1 1027 1027
100	14796538 32247 443963 558877 7.947353599621 9.9990433593 1027 1035 1035 1062945 1100148075
101	14828785 32247 443965 558879 7.947354477621 9.9990442373 1027 1035 1035 1062945 1100148075
102	14861032 32247 443965 558879 7.947354477621 9.9990442373 1027 1028 1028 1055756 1085317168
103	14893279 32247 443967 558881 7.947354477621 9.9990442373 1027 8224 8224 8446048 69460298752
104	14925526 29166 443967 558881 7.947354477621 9.9990442373 1027 0 0 0 0
105	14954692 32247 443967 558881 7.947354477621 9.9990442373 1027 8224 8224 8446048 69460298752
106	14986939 32247 443967 558881 7.947354477621 9.9990442373 1027 1028 1028 1055756 1085317168
107	15019186 58332 443967 558882 7.947354477621 9.9990450653 2054 0 1 1027 1027
108	15077518 32247 443967 558881 7.947354477621 9.9990442373 1027 1035 1035 1062945 1100148075
109	15109765 32247 443969 558883 7.947355355621 9.9990451153 1027 1035 1035 1062945 1100148075
110	15142012 32247 443969 558883 7.947355355621 9.9990451153 1027 1028 1028 1055756 1085317168
111	15174259 32247 443972 558886 7.947355355621 9.9990451153 1027 1044 1044 1072188 1119364272
112	15206506 32247 443974 558888 7.947355355621 9.9990451153 1027 8512 8512 8741824 74410405888
113	15238753 29166 443974 558888 7.947355355621 9.9990451153 1027 0 0 0 0
114	15267919 32247 443974 558888 7.947355355621 9.9990451153 1027 8512 8512 8741824 74410405888
115	15300166 32247 443974 558888 7.947355355621 9.9990451153 1027 1064 1064 1092728 1162662592
116	15332413 58332 443974 558889 7.947355355621 9.9990459721 2054 0 1 1027 1027
117	15390745 32247 443974 558888 7.947355355621 9.9990451153 1027 1071 1071 1099917 1178011107
118	15422992 32247 443976 558890 7.947356262421 9.9990460221 1027 1071 1071 1099917 1178011107
119	15455239 32247 443976 558890 7.947356262421 9.9990460221 1027 1064 1064 1092728 1162662592
120	15487486 32247 443978 558892 7.947356262421 9.9990460221 1027 8512 8512 8741824 74410405888
121	15519733 29166 443978 558892 7.947356262421 9.9990460221 1027 0 0 0 0
122	15548899 32247 443978 558892 7.947356262421 9.9990460221 1027 8512 8512 8741824 74410405888
123	15581146 32247 443978 558892 7.947356262421 9.9990460221 1027 1064 1064 1092728 1162662592
124	15613393 58332 443978 558893 7.947356262421 9.9990468789 2054 0 1 1027 1027
125	15671725 32247 443978 558892 7.947356262421 9.9990460221 1027 1071 1071 1099917 1178011107
126	15703972 32247 443980 558894 7.947357169221 9.9990469289 1027 1071 1071 1099917 1178011107
127	15736219 32247 443980 558894 7.947357169221 9.9990469289 1027 1064 1064 1092728 1162662592
128	15768466 32247 443982 558896 7.947357169221 9.9990469289 1027 1044 1044 1072188 1119364272
129	15800713 32247 443985 558899 7.947357169221 9.9990469289 1027 1028 1028 1055756 1085317168
130	15832960 32247 443985 558899 7.947357169221 9.9990469289 1027 1029 1029 1056783 1087429707
131	15865207 32247 443986 558900 7.947357169221 9.9990469289 1027 1029 1029 1056783 1087429707
132	15897454 13974 444180 558458 7.951 9.992 682 6 14 6748 74552
133	15911428 13622 444180 558458 7.951 9.992 682 0 1 79 79
134	15925050 8610 444205 558499 7.951 9.992 410 15 15 6150 92250
135	15933660 13940 444205 558499 7.951 9.992 410 213.01686284528 213.01686284528 87336.913766563 18604235.381141
136	15947600 13940 444205 558499 7.951 9.992 410 39.902924229404 42.104500345975 16811.522037953 689831.62384557
137	15961540 9020 444206 558500 7.951 9.992 410 167 870 212585 160881745
138	15970560 11824 444082 558671 7.95 9.996 342 -6.5674674553962 21.566758613257 1220.0627819125 44894.252802215
139	15982384 11688 444083 558672 7.95 9.996 342 -21.39478053621 10.725765823772 -3359.7636318342 85850.22227253
140	15994072 11620 444084 558673 7.95 9.996 342 -38.71805427305 11.61004579179 -7041.1526333949 274698.38500761
141	16005692 11686 444085 558674 7.95 9.996 342 -21.160932423186 9.5287899758421 -3456.0650891693 83166.354960561
142	16017378 11756 444086 558675 7.95 9.996 342 -28.666851979288 4.689452981892 -5694.5666056991 151807.64083333
143	16029134 11824 444087 558676 7.95 9.996 342 -29.525542628103 4.1523954775411 -5948.613604196 161560.82285665
144	16040958 11755 444088 558677 7.95 9.996 342 -12.148327663842 25.415813732642 473.17415901297 72928.239831441
145	16052713 11824 444089 558678 7.95 9.996 342 -22.620171560779 12.748555161895 -3378.6715415529 97450.897569128
146	16064537 11824 444090 558679 7.95 9.996 342 -20.916104373293 7.3827948825859 -3666.883307342 80333.625618689
147	16076361 11757 444091 558680 7.95 9.996 342 -26.38596234867 16.462868803239 -3745.0231253299 135048.91211104
148	16088118 11686 444092 558681 7.95 9.996 342 -6.3549957916908 13.195238870838 235.18034966529 19738.293642344
149	16099804 11824 444093 558682 7.95 9.996 342 -35.191726545217 9.0089151014942 -6590.0514275893 227051.47704486
150	16111628 11686 444094 558683 7.95 9.996 342 -3.3294725840868 20.193079289438 1759.2987670606 37390.202085388
151	16123314 11686 444095 558684 7.95 9.996 342 -2.8117875250376 20.074711327632 1857.985325086 36922.076017542
152	16135000 11688 444096 558685 7.95 9.996 342 -18.01443798128 13.631593371239 -2262.1467269674 66257.428432643
153	16146688 11824 444097 558686 7.95 9.996 342 -15.239718258015 3.6346616586393 -2886.6600385094 42611.365051462
154	16158512 11755 444098 558687 7.95 9.996 342 -7.6127054448635 14.471565160946 117.23687649242 25020.551973932
155	16170267 11755 444099 558688 7.95 9.996 342 -21.604736069383 3.3551817125836 -4313.7578649908 86320.260613279
156	16182022 11686 444100 558689 7.95 9.996 342 -9.5244637374906 25.467201768467 1053.6065921122 65959.486601824
157	16193708 11755 444101 558690 7.95 9.996 342 -3.6938847371308 19.435290877524 1586.2058556267 34757.018414647
158	16205463 8280 444225 558550 7.952 9.993 414 1 1 414 414
159	16213743 9020 444225 558550 7.952 9.993 410 165 868 211765 160033045
160	16222763 9020 444228 558553 7.952 9.993 410 165 868 211765 160033045
161	16231783 8200 444228 558553 7.952 9.993 410 0 0 0 0
162	16239983 9836 444228 558553 7.952 9.993 410 0.004 0.01 1.664 0.0068960000000001
163	16249819 8200 444228 558553 7.952 9.993 410 0 0 0 0
164	16258019 12915 444255 558596 7.952 9.994 615 13 13 7995 103935
165	16270934 20910 444255 558596 7.952 9.994 615 514.45895514989 514.45895514989 316392.25741718 162770830.16836
166	16291844 20910 444255 558596 7.952 9.994 615 22.804439211072 25.439442896288 14786.633555703 356238.85219064
167	16312754 13325 444256 558597 7.952 9.994 615 57 615 213405 106115175
168	16326079 6951 444307 558553 7.953 9.993 205 113850.21683532 117062.99439091 23640268.100566 2726333833727.2
169	16333030 4100 444307 558553 7.953 9.993 205 0 0 0 0
170	16337130 4100 444307 558553 7.953 9.993 205 0 0 0 0
171	16341230 6765 444307 558553 7.953 9.993 205 0.005642830779 0.010642830779 1.176780309695 0.0068532287672481
172	16347995 4715 444307 558553 7.953 9.993 205 1029 1029 210945 217062405
173	16352710 4715 444308 558554 7.953 9.993 205 1029 1029 210945 217062405
174	16357425 4715 444308 558554 7.953 9.993 205 1028 1028 210740 216640720
175	16362140 4715 444311 558557 7.953 9.993 205 1008 1008 206640 208293120
176	16366855 4715 444312 558558 7.953 9.993 205 1000 1000 205000 205000000
177	16371570 6765 444312 558558 7.953 9.993 205 0.005646400379 0.010646400379 1.177512077695 0.0068616326493541
178	16378335 4510 444312 558558 7.953 9.993 205 790 994 182860 163829030
179	16382845 8200 444319 558593 7.953 9.994 410 0 1 4 4
180	16391045 8280 444319 558593 7.953 9.994 414 0 1 4 4
181	16399325 8200 444319 558593 7.953 9.994 410 1 2 414 422
182	16407525 8200 444336 558645 7.954 9.995 410 1 1 410 410
183	16415725 9020 444336 558645 7.954 9.995 410 165 868 211765 160033045
184	16424745 9020 444339 558648 7.954 9.995 410 165 868 211765 160033045
185	16433765 8200 444339 558648 7.954 9.995 410 0 0 0 0
186	16441965 9840 444339 558648 7.954 9.995 410 0.004 0.004 1.64 0.0065600000000001
187	16451805 8200 444339 558648 7.954 9.995 410 0 0 0 0
188	16460005 11551 444233 558813 7.952 9.998 342 19.711224773161 19.711224773161 6741.2388724211 132878.07466386
189	16471556 11551 444233 558813 7.952 9.998 342 19.100394871658 19.100394871658 6532.335046107 124770.17881461
190	16483107 11551 444235 558815 7.952 9.998 342 6.6810196202584 6.6810196202584 2284.9087101284 15265.519922867
191	16494658 11551 444235 558815 7.952 9.998 342 16.562229399304 16.562229399304 5664.2824545619 93813.145394903
192	16506209 10867 444237 558817 7.952 9.998 342 29.7033738183 29.7033738183 10158.553845859 301743.32233687
193	16517076 11551 444237 558817 7.952 9.998 342 29.894246933457 29.894246933457 10223.832451242 305633.77190374
194	16528627 11551 444239 558819 7.952 9.998 342 6.4730322380217 6.4730322380217 2213.7770254034 14329.850053228
195	16540178 11551 444239 558819 7.952 9.998 342 26.292370128803 26.292370128803 8991.9905840506 236420.74463057
196	16551729 11551 444241 558821 7.952 9.998 342 26.331540496202 26.331540496202 9005.3868497009 237125.70851686
197	16563280 11551 444241 558821 7.952 9.998 342 42.104500345975 42.104500345975 14399.739118323 606293.82068941
198	16574831 11551 444243 558823 7.952 9.998 342 15.938317510838 15.938317510838 5450.9045887066 86878.248056091
199	16586382 11551 444243 558823 7.952 9.998 342 32.448955389855 32.448955389855 11097.54274333 360103.66941534
200	16597933 11209 444245 558825 7.952 9.998 342 17.54251030457 17.54251030457 5999.538524163 105246.9663828
201	16609142 11209 444245 558825 7.952 9.998 342 39.07556322887 39.07556322887 13363.842624273 522199.67744547
202	16620351 11585 443915 558827 7.946 9.998 343 3.7587097150818 3.7587097150818 1289.237432273 4845.8692617318
203	16631936 11585 443915 558827 7.946 9.998 343 14.069799583145 14.069799583145 4825.9412570188 67900.026286284
204	16643521 11585 443917 558829 7.946 9.998 343 22.366869721704 22.366869721704 7671.8363145443 171594.96337365
205	16655106 11585 443917 558829 7.946 9.998 343 22.715433794674 22.715433794674 7791.3937915732 176984.88984071
206	16666691 11585 443919 558831 7.946 9.998 343 1.7627434697224 1.7627434697224 604.62101011477 1065.7917372368
207	16678276 11585 443919 558831 7.946 9.998 343 15.343456873134 15.343456873134 5262.8057074848 80749.632404475
208	16689861 12936 443927 558724 7.946 9.996 616 12 12 7392 88704
209	16702797 13804 444348 558666 7.954 9.995 406 393.00968923102 393.00968923102 159561.9338278 62709386.026762
210	16716601 13804 444348 558666 7.954 9.995 406 22.325386808815 23.082445365571 9216.2758142868 209269.34980843
211	16730405 13350 443928 558725 7.946 9.996 616 42 555 213447 103404573
212	16743755 240 447132 558082 8.004 9.985 12 2 2 24 48
213	16743995 240 447132 558082 8.004 9.985 12 0 0 0 0
214	16744235 6919 444401 558648 7.955 9.995 205 114053.69649805 117325.23364486 23687794.143796 2737312772072.8
215	16751154 4100 444401 558648 7.955 9.995 205 0 0 0 0
216	16755254 4100 444401 558648 7.955 9.995 205 0 0 0 0
217	16759354 6355 444401 558648 7.955 9.995 205 0.0059530711 0.0059530711 1.2203795755 0.0072650063819393
218	16765709 4715 444401 558648 7.955 9.995 205 1029 1029 210945 217062405
219	16770424 4715 444402 558649 7.955 9.995 205 1029 1029 210945 217062405
220	16775139 4715 444402 558649 7.955 9.995 205 1028 1028 210740 216640720
221	16779854 4715 444405 558652 7.955 9.995 205 1008 1008 206640 208293120
222	16784569 4715 444406 558653 7.955 9.995 205 1000 1000 205000 205000000
223	16789284 6355 444406 558653 7.955 9.995 205 0.0059566407 0.0059566407 1.2211113435 0.0072737215279238
224	16795639 4510 444406 558653 7.955 9.995 205 792 996 183270 164561290
225	16800149 12320 443946 558748 7.947 9.997 616 1 1 616 616
226	16812469 13346 443946 558748 7.947 9.997 616 55 613 212230 105267040
227	16825815 13346 443949 558751 7.947 9.997 616 55 613 212230 105267040
228	16839161 12320 443949 558751 7.947 9.997 616 0 0 0 0
229	16851481 14784 443949 558751 7.947 9.997 616 0.004 0.004 2.464 0.0098560000000001
230	16866265 12320 443949 558751 7.947 9.997 616 0 0 0 0
231	16878585 8220 443922 558719 7.946 9.996 411 0 0 0 0
232	16886805 8220 443922 558719 7.946 9.996 411 0 0 0 0
233	16895025 8220 443922 558719 7.946 9.996 411 1 1 411 411
234	16903245 12360 443924 558836 7.946 9.998 618 0 0 0 0
235	16915605 12360 443924 558836 7.946 9.998 618 0 0 0 0
236	16927965 12360 443924 558836 7.946 9.998 618 1 1 618 618
237	16940325 8652 443925 558760 7.946 9.997 412 14 14 5768 80752
238	16948977 14008 443925 558760 7.946 9.997 412 227.06578094254 227.06578094254 93551.101748327 21242253.976519
239	16962985 14008 443925 558760 7.946 9.997 412 34.578490630192 34.578490630192 14246.338139639 492616.86987607
240	16976993 9064 443926 558761 7.946 9.997 412 473 564 213622 111615950
241	16986057 7140 443927 558724 7.946 9.996 210 393.00968923102 393.00968923102 82532.034738514 32435889.324187
242	16993197 7140 443927 558724 7.946 9.996 210 17.910560740813 20.324569524027 3780.5298258365 68103.918592868
243	17000337 12360 443935 558847 7.947 9.999 618 1 1 618 618
244	17012697 13394 443935 558847 7.947 9.999 618 40 553 213210 103054422
245	17026091 13394 443938 558850 7.947 9.999 618 40 553 213210 103054422
246	17039485 12360 443938 558850 7.947 9.999 618 0 0 0 0
247	17051845 14832 443938 558850 7.947 9.999 618 0.004 0.004 2.472 0.0098880000000001
248	17066677 12360 443938 558850 7.947 9.999 618 0 0 0 0
249	17079037 6987 443949 558751 7.947 9.997 206 114028.34278093 117312.22110263 23799130.681406 2749693185206.3
250	17086024 4120 443949 558751 7.947 9.997 206 0 0 0 0
251	17090144 4120 443949 558751 7.947 9.997 206 0 0 0 0
252	17094264 6798 443949 558751 7.947 9.997 206 0.006070190714 0.006070190714 1.250459287084 0.0075905263526924
253	17101062 4738 443949 558751 7.947 9.997 206 1029 1029 211974 218121246
254	17105800 4738 443950 558752 7.947 9.997 206 1029 1029 211974 218121246
255	17110538 4738 443950 558752 7.947 9.997 206 1028 1028 211768 217697504
256	17115276 4738 443953 558755 7.947 9.997 206 1008 1008 207648 209309184
257	17120014 4738 443954 558756 7.947 9.997 206 1000 1000 206000 206000000
258	17124752 6798 443954 558756 7.947 9.997 206 0.006073760314 0.006073760314 1.251194624684 0.0075994562564958
259	17131550 4532 443954 558756 7.947 9.997 206 791 996 184061 165186971
260	17136082 10542 443990 558792 7.948 9.998 524 4 13 4503 44991
261	17146624 10373 443990 558792 7.948 9.998 524 0 1 39 39
262	17156997 6979 444028 558850 7.949 9.999 206 113888.65429492 117130.37847172 23766391.780434 2742129027165.8
263	17163976 4120 444028 558850 7.949 9.999 206 0 0 0 0
264	17168096 4120 444028 558850 7.949 9.999 206 0 0 0 0
265	17172216 6592 444028 558850 7.949 9.999 206 0.00653569143 0.00653569143 1.34635243458 0.0087993440684441
266	17178808 4738 444028 558850 7.949 9.999 206 1029 1029 211974 218121246
267	17183546 4738 444029 558851 7.949 9.999 206 1029 1029 211974 218121246
268	17188284 4738 444029 558851 7.949 9.999 206 1028 1028 211768 217697504
269	17193022 4738 444032 558854 7.949 9.999 206 1008 1008 207648 209309184
270	17197760 4738 444033 558855 7.949 9.999 206 1000 1000 206000 206000000
271	17202498 6592 444033 558855 7.949 9.999 206 0.00653926103 0.00653926103 1.34708777218 0.0088089585726062
272	17209090 4532 444033 558855 7.949 9.999 206 790 995 183855 164819055
273	17213622 8404 444286 558629 7.953 9.995 412 2 11 3423 32935
274	17222026 8183 444286 558629 7.953 9.995 412 0 1 40 40
275	17230209 4506 444125 558922 7.95 10 206 1000 1000 206000 206000000
276	17234715 1698 444880 556953 7.964 9.965 85 2 10 356 2022
277	17236413 1696 444880 556953 7.964 9.965 85 0 1 8 8
278	17238109 359 465636 556408 8.334 9.955 18 2 5 39 93
279	17238468 359 465636 556408 8.334 9.955 18 0 1 1 1
280	17238827 3091 444108 558734 7.95 9.997 156 4 12 1035 7497
281	17241918 3089 444108 558734 7.95 9.997 156 0 1 15 15
282	17245007 1739 444382 557528 7.955 9.975 87 2 10 379 2237
283	17246746 1735 444382 557528 7.955 9.975 87 0 1 11 11
284	17248481 120 484214 537861 8.666 9.624 6 2 4 14 36
285	17248601 120 484214 537861 8.666 9.624 6 0 1 1 1
286	17248721 693 446867 558877 7.9990433593 9.9990433593 21 4112000 4112000 86352000 3.55079424e+14
287	17249414 693 446867 558877 7.9990433593 9.9990433593 21 4112000 4112000 86352000 3.55079424e+14
288	17250107 693 446871 558881 7.9990442373 9.9990442373 21 4112000 4112000 86352000 3.55079424e+14
289	17250800 693 446871 558881 7.9990442373 9.9990442373 21 4112000 4112000 86352000 3.55079424e+14
290	17251493 693 446878 558888 7.9990451153 9.9990451153 21 4256000 4256000 89376000 3.80384256e+14
291	17252186 693 446878 558888 7.9990451153 9.9990451153 21 4256000 4256000 89376000 3.80384256e+14
292	17252879 693 446882 558892 7.9990460221 9.9990460221 21 4256000 4256000 89376000 3.80384256e+14
293	17253572 693 446882 558892 7.9990460221 9.9990460221 21 4256000 4256000 89376000 3.80384256e+14
294	17254265 160 447195 526100 8.005 9.414 8 2 2 16 32
295	17254425 160 447195 526100 8.005 9.414 8 0 0 0 0
296	17254585 80 451918 549908 8.089 9.839 4 0 0 0 0
297	17254665 298 448879 552495 8.035 9.885 15 2 6 34 92
298	17254963 298 448879 552495 8.035 9.885 15 0 1 1 1
302	17255261 22 558937 558937 10 10 1 100000 100000 100000 10000000000
303	17255283 22 558937 558937 10 10 1 100000 100000 100000 10000000000
304	17255305 22 558937 558937 10 10 1 100000 100000 100000 10000000000
305	17255327 22 558937 558937 10 10 1 100000 100000 100000 10000000000
306	17255349 22 558937 558937 10 10 1 100000 100000 100000 10000000000

