file 33169281 1715940309                                        
version 3
run CarrierAggregation-2-20240517-12:04:24-11756
attr configname CarrierAggregation
attr datetime 20240517-12:04:24
attr datetimef 20240517-120424
attr experiment CarrierAggregation
attr inifile omnetpp.ini
attr iterationvars $numUes=10
attr iterationvarsd numUes=10
attr iterationvarsf numUes=10-
attr measurement $numUes=10
attr network simu5g.simulations.NR.networks.SingleCell_Standalone
attr processid 11756
attr repetition 0
attr replication #0
attr resultdir results
attr runnumber 2
attr seedset 0
itervar numUes 10
config debug-on-errors true
config image-path ../../../images;../../../../inet4.5/images
config extends Multiple-UEs
config *.carrierAggregation.numComponentCarriers 2
config *.carrierAggregation.componentCarrier[0].carrierFrequency 2GHz
config *.carrierAggregation.componentCarrier[0].numBands 6
config *.carrierAggregation.componentCarrier[1].carrierFrequency 6GHz
config *.carrierAggregation.componentCarrier[1].numBands 6
config *.gnb.cellularNic.numCarriers 2
config *.gnb.cellularNic.channelModel[0].componentCarrierIndex 0
config *.gnb.cellularNic.channelModel[1].componentCarrierIndex 1
config *.ue[*].cellularNic.numNRCarriers 2
config *.ue[*].cellularNic.nrChannelModel[0].componentCarrierIndex 0
config *.ue[*].cellularNic.nrChannelModel[1].componentCarrierIndex 1
config *.numBgCells 2
config *.bgCell[0].bgScheduler.carrierFrequency 2GHz
config *.bgCell[0].bgScheduler.numBands 6
config *.bgCell[1].bgScheduler.carrierFrequency 6GHz
config *.bgCell[1].bgScheduler.numBands 6
config *.bgCell[*].bgScheduler.txPower 23
config extends BgTraffic
config *.numUe 10
config *.ue[*].mobility.initialX uniform(0m,1000m)
config *.ue[*].mobility.initialY uniform(0m,1000m)
config *.server.numApps 10
config output-scalar-file results/CarrierAggregation/$numUes=10-0.sca
config output-vector-file results/CarrierAggregation/$numUes=10-0.vec
config extends Single-UE
config *.numBgCells 1
config *.bgCell[*].bgScheduler.isNr true
config *.bgCell[*].bgScheduler.txPower 23
config *.bgCell[*].mobility.initialX 750m
config *.bgCell[*].mobility.initialY 1000m
config *.bgCell[*].bgTrafficGenerator.numBgUes 10
config *.bgCell[*].bgTrafficGenerator.bgUE[*].mobility.initialX uniform(500m,1000m)
config *.bgCell[*].bgTrafficGenerator.bgUE[*].mobility.initialY uniform(500m,1000m)
config *.bgCell[*].bgTrafficGenerator.bgUE[*].trafficGeneratorType "\"TrafficGeneratorCbr\""
config *.bgCell[*].bgTrafficGenerator.bgUE[*].generator.startTimeDl uniform(0s,0.05s)
config *.bgCell[*].bgTrafficGenerator.bgUE[*].generator.packetSizeDl 1000B
config *.bgCell[*].bgTrafficGenerator.bgUE[*].generator.periodDl 0.01s
config *.gnb.mobility.initialX 500m
config *.gnb.mobility.initialY 500m
config *.numUe 1
config *.ue[*].mobility.initialX 500m
config *.ue[*].mobility.initialY 900m
config *.ue[*].macCellId 0
config *.ue[*].masterId 0
config *.ue[*].nrMacCellId 1
config *.ue[*].nrMasterId 1
config *.ue[*].numApps 1
config *.server.numApps 1
config *.ue[*].app[*].typename CbrReceiver
config *.ue[*].app[*].localPort 1000
config *.server.app[*].typename CbrSender
config *.server.app[*].PacketSize 1000
config *.server.app[*].sampling_time 0.01s
config *.server.app[*].destAddress "\"ue[\"+string(ancestorIndex(0))+\"]\""
config *.server.app[*].destPort 1000
config *.server.app[*].localPort 3088+ancestorIndex(0)
config *.server.app[*].startTime uniform(0.01s,0.05s)
config output-scalar-file-append false
config network simu5g.simulations.NR.networks.SingleCell_Standalone
config sim-time-limit 10s
config warmup-period 1s
config seed-set 0
config output-scalar-file results/CarrierAggregation/0.sca
config output-vector-file results/CarrierAggregation/0.vec
config **.routingRecorder.enabled false
config **.amcType "\"NRAmc\""
config **.targetBler 0.01
config **.blerShift 5
config *.configurator.config "xmldoc(\"./demo.xml\")"
config **.mobility.constraintAreaMaxX 1000m
config **.mobility.constraintAreaMaxY 1000m
config **.mobility.constraintAreaMinX 0m
config **.mobility.constraintAreaMinY 0m
config **.mobility.constraintAreaMinZ 0m
config **.mobility.constraintAreaMaxZ 0m
config **.mobility.initFromDisplayString false

vector 0 SingleCell_Standalone.server.ppp[0].queue queueLength:vector ETV
attr autoWarmupFilter false
attr interpolationmode sample-hold
attr recordingmode vector
attr source "warmup(atomic(constant0(packetPushEnded) + count(packetPushStarted) - count(packetPulled) - count(packetRemoved) - count(packetDropped)))"
attr title "queue length"
attr unit pk
vector 1 SingleCell_Standalone.server.ppp[0].queue queueBitLength:vector ETV
attr autoWarmupFilter false
attr interpolationmode sample-hold
attr recordingmode vector
attr source "warmup(atomic(constant0(packetPushEnded) + sum(packetLength(packetPushStarted)) - sum(packetLength(packetPulled)) - sum(packetLength(packetRemoved)) - sum(packetLength(packetDropped))))"
attr title "queue bit length"
attr unit b
vector 2 SingleCell_Standalone.server.udp passedUpPk:vector(count) ETV
attr interpolationmode none
attr recordingmode vector(count)
attr source packetSentToUpper
attr title "packets passed up, count"
vector 3 SingleCell_Standalone.server.udp droppedPkWrongPort:vector(count) ETV
attr interpolationmode none
attr recordingmode vector(count)
attr source packetDropReasonIsNoPortFound(packetDropped)
attr title "packets dropped (wrong port), count"
vector 4 SingleCell_Standalone.server.udp droppedPkBadChecksum:vector(count) ETV
attr interpolationmode none
attr recordingmode vector(count)
attr source packetDropReasonIsIncorrectlyReceived(packetDropped)
attr title "packets dropped (checksum error), count"
vector 5 SingleCell_Standalone.router.ppp[0].queue queueLength:vector ETV
attr autoWarmupFilter false
attr interpolationmode sample-hold
attr recordingmode vector
attr source "warmup(atomic(constant0(packetPushEnded) + count(packetPushStarted) - count(packetPulled) - count(packetRemoved) - count(packetDropped)))"
attr title "queue length"
attr unit pk
vector 6 SingleCell_Standalone.router.ppp[0].queue queueBitLength:vector ETV
attr autoWarmupFilter false
attr interpolationmode sample-hold
attr recordingmode vector
attr source "warmup(atomic(constant0(packetPushEnded) + sum(packetLength(packetPushStarted)) - sum(packetLength(packetPulled)) - sum(packetLength(packetRemoved)) - sum(packetLength(packetDropped))))"
attr title "queue bit length"
attr unit b
vector 7 SingleCell_Standalone.router.ppp[1].queue queueLength:vector ETV
attr autoWarmupFilter false
attr interpolationmode sample-hold
attr recordingmode vector
attr source "warmup(atomic(constant0(packetPushEnded) + count(packetPushStarted) - count(packetPulled) - count(packetRemoved) - count(packetDropped)))"
attr title "queue length"
attr unit pk
vector 8 SingleCell_Standalone.router.ppp[1].queue queueBitLength:vector ETV
attr autoWarmupFilter false
attr interpolationmode sample-hold
attr recordingmode vector
attr source "warmup(atomic(constant0(packetPushEnded) + sum(packetLength(packetPushStarted)) - sum(packetLength(packetPulled)) - sum(packetLength(packetRemoved)) - sum(packetLength(packetDropped))))"
attr title "queue bit length"
attr unit b
vector 9 SingleCell_Standalone.upf.ppp[0].queue queueLength:vector ETV
attr autoWarmupFilter false
attr interpolationmode sample-hold
attr recordingmode vector
attr source "warmup(atomic(constant0(packetPushEnded) + count(packetPushStarted) - count(packetPulled) - count(packetRemoved) - count(packetDropped)))"
attr title "queue length"
attr unit pk
vector 10 SingleCell_Standalone.upf.ppp[0].queue queueBitLength:vector ETV
attr autoWarmupFilter false
attr interpolationmode sample-hold
attr recordingmode vector
attr source "warmup(atomic(constant0(packetPushEnded) + sum(packetLength(packetPushStarted)) - sum(packetLength(packetPulled)) - sum(packetLength(packetRemoved)) - sum(packetLength(packetDropped))))"
attr title "queue bit length"
attr unit b
vector 11 SingleCell_Standalone.upf.pppIf.queue queueLength:vector ETV
attr autoWarmupFilter false
attr interpolationmode sample-hold
attr recordingmode vector
attr source "warmup(atomic(constant0(packetPushEnded) + count(packetPushStarted) - count(packetPulled) - count(packetRemoved) - count(packetDropped)))"
attr title "queue length"
attr unit pk
vector 12 SingleCell_Standalone.upf.pppIf.queue queueBitLength:vector ETV
attr autoWarmupFilter false
attr interpolationmode sample-hold
attr recordingmode vector
attr source "warmup(atomic(constant0(packetPushEnded) + sum(packetLength(packetPushStarted)) - sum(packetLength(packetPulled)) - sum(packetLength(packetRemoved)) - sum(packetLength(packetDropped))))"
attr title "queue bit length"
attr unit b
vector 13 SingleCell_Standalone.upf.udp passedUpPk:vector(count) ETV
attr interpolationmode none
attr recordingmode vector(count)
attr source packetSentToUpper
attr title "packets passed up, count"
vector 14 SingleCell_Standalone.upf.udp droppedPkWrongPort:vector(count) ETV
attr interpolationmode none
attr recordingmode vector(count)
attr source packetDropReasonIsNoPortFound(packetDropped)
attr title "packets dropped (wrong port), count"
vector 15 SingleCell_Standalone.upf.udp droppedPkBadChecksum:vector(count) ETV
attr interpolationmode none
attr recordingmode vector(count)
attr source packetDropReasonIsIncorrectlyReceived(packetDropped)
attr title "packets dropped (checksum error), count"
vector 16 SingleCell_Standalone.iUpf.ppp[0].queue queueLength:vector ETV
attr autoWarmupFilter false
attr interpolationmode sample-hold
attr recordingmode vector
attr source "warmup(atomic(constant0(packetPushEnded) + count(packetPushStarted) - count(packetPulled) - count(packetRemoved) - count(packetDropped)))"
attr title "queue length"
attr unit pk
vector 17 SingleCell_Standalone.iUpf.ppp[0].queue queueBitLength:vector ETV
attr autoWarmupFilter false
attr interpolationmode sample-hold
attr recordingmode vector
attr source "warmup(atomic(constant0(packetPushEnded) + sum(packetLength(packetPushStarted)) - sum(packetLength(packetPulled)) - sum(packetLength(packetRemoved)) - sum(packetLength(packetDropped))))"
attr title "queue bit length"
attr unit b
vector 18 SingleCell_Standalone.iUpf.ppp[1].queue queueLength:vector ETV
attr autoWarmupFilter false
attr interpolationmode sample-hold
attr recordingmode vector
attr source "warmup(atomic(constant0(packetPushEnded) + count(packetPushStarted) - count(packetPulled) - count(packetRemoved) - count(packetDropped)))"
attr title "queue length"
attr unit pk
vector 19 SingleCell_Standalone.iUpf.ppp[1].queue queueBitLength:vector ETV
attr autoWarmupFilter false
attr interpolationmode sample-hold
attr recordingmode vector
attr source "warmup(atomic(constant0(packetPushEnded) + sum(packetLength(packetPushStarted)) - sum(packetLength(packetPulled)) - sum(packetLength(packetRemoved)) - sum(packetLength(packetDropped))))"
attr title "queue bit length"
attr unit b
vector 20 SingleCell_Standalone.iUpf.pppIf.queue queueLength:vector ETV
attr autoWarmupFilter false
attr interpolationmode sample-hold
attr recordingmode vector
attr source "warmup(atomic(constant0(packetPushEnded) + count(packetPushStarted) - count(packetPulled) - count(packetRemoved) - count(packetDropped)))"
attr title "queue length"
attr unit pk
vector 21 SingleCell_Standalone.iUpf.pppIf.queue queueBitLength:vector ETV
attr autoWarmupFilter false
attr interpolationmode sample-hold
attr recordingmode vector
attr source "warmup(atomic(constant0(packetPushEnded) + sum(packetLength(packetPushStarted)) - sum(packetLength(packetPulled)) - sum(packetLength(packetRemoved)) - sum(packetLength(packetDropped))))"
attr title "queue bit length"
attr unit b
vector 22 SingleCell_Standalone.iUpf.udp passedUpPk:vector(count) ETV
attr interpolationmode none
attr recordingmode vector(count)
attr source packetSentToUpper
attr title "packets passed up, count"
vector 23 SingleCell_Standalone.iUpf.udp droppedPkWrongPort:vector(count) ETV
attr interpolationmode none
attr recordingmode vector(count)
attr source packetDropReasonIsNoPortFound(packetDropped)
attr title "packets dropped (wrong port), count"
vector 24 SingleCell_Standalone.iUpf.udp droppedPkBadChecksum:vector(count) ETV
attr interpolationmode none
attr recordingmode vector(count)
attr source packetDropReasonIsIncorrectlyReceived(packetDropped)
attr title "packets dropped (checksum error), count"
vector 25 SingleCell_Standalone.gnb.pppIf.queue queueLength:vector ETV
attr autoWarmupFilter false
attr interpolationmode sample-hold
attr recordingmode vector
attr source "warmup(atomic(constant0(packetPushEnded) + count(packetPushStarted) - count(packetPulled) - count(packetRemoved) - count(packetDropped)))"
attr title "queue length"
attr unit pk
vector 26 SingleCell_Standalone.gnb.pppIf.queue queueBitLength:vector ETV
attr autoWarmupFilter false
attr interpolationmode sample-hold
attr recordingmode vector
attr source "warmup(atomic(constant0(packetPushEnded) + sum(packetLength(packetPushStarted)) - sum(packetLength(packetPulled)) - sum(packetLength(packetRemoved)) - sum(packetLength(packetDropped))))"
attr title "queue bit length"
attr unit b
vector 27 SingleCell_Standalone.gnb.pppMEHostIf.queue queueLength:vector ETV
attr autoWarmupFilter false
attr interpolationmode sample-hold
attr recordingmode vector
attr source "warmup(atomic(constant0(packetPushEnded) + count(packetPushStarted) - count(packetPulled) - count(packetRemoved) - count(packetDropped)))"
attr title "queue length"
attr unit pk
vector 28 SingleCell_Standalone.gnb.pppMEHostIf.queue queueBitLength:vector ETV
attr autoWarmupFilter false
attr interpolationmode sample-hold
attr recordingmode vector
attr source "warmup(atomic(constant0(packetPushEnded) + sum(packetLength(packetPushStarted)) - sum(packetLength(packetPulled)) - sum(packetLength(packetRemoved)) - sum(packetLength(packetDropped))))"
attr title "queue bit length"
attr unit b
vector 29 SingleCell_Standalone.gnb.udp passedUpPk:vector(count) ETV
attr interpolationmode none
attr recordingmode vector(count)
attr source packetSentToUpper
attr title "packets passed up, count"
vector 30 SingleCell_Standalone.gnb.udp droppedPkWrongPort:vector(count) ETV
attr interpolationmode none
attr recordingmode vector(count)
attr source packetDropReasonIsNoPortFound(packetDropped)
attr title "packets dropped (wrong port), count"
vector 31 SingleCell_Standalone.gnb.udp droppedPkBadChecksum:vector(count) ETV
attr interpolationmode none
attr recordingmode vector(count)
attr source packetDropReasonIsIncorrectlyReceived(packetDropped)
attr title "packets dropped (checksum error), count"
vector 32 SingleCell_Standalone.ue[0].udp passedUpPk:vector(count) ETV
attr interpolationmode none
attr recordingmode vector(count)
attr source packetSentToUpper
attr title "packets passed up, count"
vector 33 SingleCell_Standalone.ue[0].udp droppedPkWrongPort:vector(count) ETV
attr interpolationmode none
attr recordingmode vector(count)
attr source packetDropReasonIsNoPortFound(packetDropped)
attr title "packets dropped (wrong port), count"
vector 34 SingleCell_Standalone.ue[0].udp droppedPkBadChecksum:vector(count) ETV
attr interpolationmode none
attr recordingmode vector(count)
attr source packetDropReasonIsIncorrectlyReceived(packetDropped)
attr title "packets dropped (checksum error), count"
vector 35 SingleCell_Standalone.ue[1].udp passedUpPk:vector(count) ETV
attr interpolationmode none
attr recordingmode vector(count)
attr source packetSentToUpper
attr title "packets passed up, count"
vector 36 SingleCell_Standalone.ue[1].udp droppedPkWrongPort:vector(count) ETV
attr interpolationmode none
attr recordingmode vector(count)
attr source packetDropReasonIsNoPortFound(packetDropped)
attr title "packets dropped (wrong port), count"
vector 37 SingleCell_Standalone.ue[1].udp droppedPkBadChecksum:vector(count) ETV
attr interpolationmode none
attr recordingmode vector(count)
attr source packetDropReasonIsIncorrectlyReceived(packetDropped)
attr title "packets dropped (checksum error), count"
vector 38 SingleCell_Standalone.ue[2].udp passedUpPk:vector(count) ETV
attr interpolationmode none
attr recordingmode vector(count)
attr source packetSentToUpper
attr title "packets passed up, count"
vector 39 SingleCell_Standalone.ue[2].udp droppedPkWrongPort:vector(count) ETV
attr interpolationmode none
attr recordingmode vector(count)
attr source packetDropReasonIsNoPortFound(packetDropped)
attr title "packets dropped (wrong port), count"
vector 40 SingleCell_Standalone.ue[2].udp droppedPkBadChecksum:vector(count) ETV
attr interpolationmode none
attr recordingmode vector(count)
attr source packetDropReasonIsIncorrectlyReceived(packetDropped)
attr title "packets dropped (checksum error), count"
vector 41 SingleCell_Standalone.ue[3].udp passedUpPk:vector(count) ETV
attr interpolationmode none
attr recordingmode vector(count)
attr source packetSentToUpper
attr title "packets passed up, count"
vector 42 SingleCell_Standalone.ue[3].udp droppedPkWrongPort:vector(count) ETV
attr interpolationmode none
attr recordingmode vector(count)
attr source packetDropReasonIsNoPortFound(packetDropped)
attr title "packets dropped (wrong port), count"
vector 43 SingleCell_Standalone.ue[3].udp droppedPkBadChecksum:vector(count) ETV
attr interpolationmode none
attr recordingmode vector(count)
attr source packetDropReasonIsIncorrectlyReceived(packetDropped)
attr title "packets dropped (checksum error), count"
vector 44 SingleCell_Standalone.ue[4].udp passedUpPk:vector(count) ETV
attr interpolationmode none
attr recordingmode vector(count)
attr source packetSentToUpper
attr title "packets passed up, count"
vector 45 SingleCell_Standalone.ue[4].udp droppedPkWrongPort:vector(count) ETV
attr interpolationmode none
attr recordingmode vector(count)
attr source packetDropReasonIsNoPortFound(packetDropped)
attr title "packets dropped (wrong port), count"
vector 46 SingleCell_Standalone.ue[4].udp droppedPkBadChecksum:vector(count) ETV
attr interpolationmode none
attr recordingmode vector(count)
attr source packetDropReasonIsIncorrectlyReceived(packetDropped)
attr title "packets dropped (checksum error), count"
vector 47 SingleCell_Standalone.ue[5].udp passedUpPk:vector(count) ETV
attr interpolationmode none
attr recordingmode vector(count)
attr source packetSentToUpper
attr title "packets passed up, count"
vector 48 SingleCell_Standalone.ue[5].udp droppedPkWrongPort:vector(count) ETV
attr interpolationmode none
attr recordingmode vector(count)
attr source packetDropReasonIsNoPortFound(packetDropped)
attr title "packets dropped (wrong port), count"
vector 49 SingleCell_Standalone.ue[5].udp droppedPkBadChecksum:vector(count) ETV
attr interpolationmode none
attr recordingmode vector(count)
attr source packetDropReasonIsIncorrectlyReceived(packetDropped)
attr title "packets dropped (checksum error), count"
vector 50 SingleCell_Standalone.ue[6].udp passedUpPk:vector(count) ETV
attr interpolationmode none
attr recordingmode vector(count)
attr source packetSentToUpper
attr title "packets passed up, count"
vector 51 SingleCell_Standalone.ue[6].udp droppedPkWrongPort:vector(count) ETV
attr interpolationmode none
attr recordingmode vector(count)
attr source packetDropReasonIsNoPortFound(packetDropped)
attr title "packets dropped (wrong port), count"
vector 52 SingleCell_Standalone.ue[6].udp droppedPkBadChecksum:vector(count) ETV
attr interpolationmode none
attr recordingmode vector(count)
attr source packetDropReasonIsIncorrectlyReceived(packetDropped)
attr title "packets dropped (checksum error), count"
vector 53 SingleCell_Standalone.ue[7].udp passedUpPk:vector(count) ETV
attr interpolationmode none
attr recordingmode vector(count)
attr source packetSentToUpper
attr title "packets passed up, count"
vector 54 SingleCell_Standalone.ue[7].udp droppedPkWrongPort:vector(count) ETV
attr interpolationmode none
attr recordingmode vector(count)
attr source packetDropReasonIsNoPortFound(packetDropped)
attr title "packets dropped (wrong port), count"
vector 55 SingleCell_Standalone.ue[7].udp droppedPkBadChecksum:vector(count) ETV
attr interpolationmode none
attr recordingmode vector(count)
attr source packetDropReasonIsIncorrectlyReceived(packetDropped)
attr title "packets dropped (checksum error), count"
vector 56 SingleCell_Standalone.ue[8].udp passedUpPk:vector(count) ETV
attr interpolationmode none
attr recordingmode vector(count)
attr source packetSentToUpper
attr title "packets passed up, count"
vector 57 SingleCell_Standalone.ue[8].udp droppedPkWrongPort:vector(count) ETV
attr interpolationmode none
attr recordingmode vector(count)
attr source packetDropReasonIsNoPortFound(packetDropped)
attr title "packets dropped (wrong port), count"
vector 58 SingleCell_Standalone.ue[8].udp droppedPkBadChecksum:vector(count) ETV
attr interpolationmode none
attr recordingmode vector(count)
attr source packetDropReasonIsIncorrectlyReceived(packetDropped)
attr title "packets dropped (checksum error), count"
vector 59 SingleCell_Standalone.ue[9].udp passedUpPk:vector(count) ETV
attr interpolationmode none
attr recordingmode vector(count)
attr source packetSentToUpper
attr title "packets passed up, count"
vector 60 SingleCell_Standalone.ue[9].udp droppedPkWrongPort:vector(count) ETV
attr interpolationmode none
attr recordingmode vector(count)
attr source packetDropReasonIsNoPortFound(packetDropped)
attr title "packets dropped (wrong port), count"
vector 61 SingleCell_Standalone.ue[9].udp droppedPkBadChecksum:vector(count) ETV
attr interpolationmode none
attr recordingmode vector(count)
attr source packetDropReasonIsIncorrectlyReceived(packetDropped)
attr title "packets dropped (checksum error), count"
vector 62 SingleCell_Standalone.bgCell[0].bgScheduler bgAvgServedBlocksUl:vector ETV
attr recordingmode vector
attr source bgAvgServedBlocksUl
attr title "Average UL served blocks for background cells"
attr unit ""
vector 63 SingleCell_Standalone.bgCell[0].bgTrafficGenerator.bgUE[6].generator bgAverageCqiDl:vector ETV
attr recordingmode vector
attr source bgAverageCqiDl
attr title "Average DL CQI for background UEs"
attr unit ""
vector 64 SingleCell_Standalone.bgCell[0].bgTrafficGenerator.bgUE[6].generator bgHarqErrorRateDl:vector ETV
attr recordingmode vector
attr source bgHarqErrorRateDl
attr title "Average DL HARQ error rate for background UEs"
attr unit ""
vector 65 SingleCell_Standalone.bgCell[0].bgScheduler bgAvgServedBlocksDl:vector ETV
attr recordingmode vector
attr source bgAvgServedBlocksDl
attr title "Average DL served blocks for background cells"
attr unit ""
vector 66 SingleCell_Standalone.bgCell[1].bgScheduler bgAvgServedBlocksUl:vector ETV
attr recordingmode vector
attr source bgAvgServedBlocksUl
attr title "Average UL served blocks for background cells"
attr unit ""
vector 67 SingleCell_Standalone.bgCell[1].bgTrafficGenerator.bgUE[4].generator bgAverageCqiDl:vector ETV
attr recordingmode vector
attr source bgAverageCqiDl
attr title "Average DL CQI for background UEs"
attr unit ""
vector 68 SingleCell_Standalone.bgCell[1].bgTrafficGenerator.bgUE[4].generator bgHarqErrorRateDl:vector ETV
attr recordingmode vector
attr source bgHarqErrorRateDl
attr title "Average DL HARQ error rate for background UEs"
attr unit ""
vector 69 SingleCell_Standalone.bgCell[1].bgScheduler bgAvgServedBlocksDl:vector ETV
attr recordingmode vector
attr source bgAvgServedBlocksDl
attr title "Average DL served blocks for background cells"
attr unit ""
vector 70 SingleCell_Standalone.gnb.cellularNic.mac avgServedBlocksUl:vector ETV
attr recordingmode vector
attr source avgServedBlocksUl
attr title "Avg Served Blocks Ul"
attr unit blocks
vector 71 SingleCell_Standalone.gnb.cellularNic.mac avgServedBlocksDl:vector ETV
attr recordingmode vector
attr source avgServedBlocksDl
attr title "Avg Served Blocks Dl"
attr unit blocks
vector 72 SingleCell_Standalone.gnb.cellularNic.mac sentPacketToUpperLayer:vector(packetBytes) ETV
attr interpolationmode none
attr recordingmode vector(packetBytes)
attr source sentPacketToUpperLayer
vector 73 SingleCell_Standalone.gnb.cellularNic.rlc.um rlcPacketLossDl:vector ETV
attr recordingmode vector
attr source rlcPacketLossDl
attr title "rlc Packet Loss"
attr unit ""
vector 74 SingleCell_Standalone.gnb.cellularNic.rlc.um sentPacketToLowerLayer:vector(packetBytes) ETV
attr interpolationmode none
attr recordingmode vector(packetBytes)
attr source sentPacketToLowerLayer
vector 75 SingleCell_Standalone.gnb.cellularNic.mac receivedPacketFromUpperLayer:vector(packetBytes) ETV
attr interpolationmode none
attr recordingmode vector(packetBytes)
attr source receivedPacketFromUpperLayer
vector 76 SingleCell_Standalone.ue[0].cellularNic.nrMac sentPacketToLowerLayer:vector(packetBytes) ETV
attr interpolationmode none
attr recordingmode vector(packetBytes)
attr source sentPacketToLowerLayer
vector 77 SingleCell_Standalone.gnb.cellularNic.mac macDelayDl:vector ETV
attr recordingmode vector
attr source macDelayDl
attr title "Delay at the MAC layer UL"
attr unit s
vector 78 SingleCell_Standalone.ue[0].cellularNic.nrMac sentPacketToUpperLayer:vector(packetBytes) ETV
attr interpolationmode none
attr recordingmode vector(packetBytes)
attr source sentPacketToUpperLayer
vector 79 SingleCell_Standalone.ue[0].cellularNic.nrRlc.um receivedPacketFromLowerLayer:vector(packetBytes) ETV
attr interpolationmode none
attr recordingmode vector(packetBytes)
attr source receivedPacketFromLowerLayer
vector 80 SingleCell_Standalone.ue[0].cellularNic.nrRlc.um rlcPduThroughputDl:vector ETV
attr recordingmode vector
attr source rlcPduThroughputDl
attr title "Throughput at the rlc layer DL"
attr unit Bps
vector 81 SingleCell_Standalone.ue[0].cellularNic.nrRlc.um rlcPduDelayDl:vector ETV
attr recordingmode vector
attr source rlcPduDelayDl
attr title "Delay at the rlc layer UL"
attr unit s
vector 82 SingleCell_Standalone.ue[0].cellularNic.nrRlc.um rlcPduPacketLossDl:vector ETV
attr recordingmode vector
attr source rlcPduPacketLossDl
attr title "rlc Packet Loss"
attr unit ""
vector 83 SingleCell_Standalone.ue[1].cellularNic.nrMac sentPacketToLowerLayer:vector(packetBytes) ETV
attr interpolationmode none
attr recordingmode vector(packetBytes)
attr source sentPacketToLowerLayer
vector 84 SingleCell_Standalone.ue[1].cellularNic.nrMac sentPacketToUpperLayer:vector(packetBytes) ETV
attr interpolationmode none
attr recordingmode vector(packetBytes)
attr source sentPacketToUpperLayer
vector 85 SingleCell_Standalone.ue[1].cellularNic.nrRlc.um receivedPacketFromLowerLayer:vector(packetBytes) ETV
attr interpolationmode none
attr recordingmode vector(packetBytes)
attr source receivedPacketFromLowerLayer
vector 86 SingleCell_Standalone.ue[1].cellularNic.nrRlc.um rlcPduThroughputDl:vector ETV
attr recordingmode vector
attr source rlcPduThroughputDl
attr title "Throughput at the rlc layer DL"
attr unit Bps
vector 87 SingleCell_Standalone.ue[1].cellularNic.nrRlc.um rlcPduDelayDl:vector ETV
attr recordingmode vector
attr source rlcPduDelayDl
attr title "Delay at the rlc layer UL"
attr unit s
vector 88 SingleCell_Standalone.ue[1].cellularNic.nrRlc.um rlcThroughputDl:vector ETV
attr recordingmode vector
attr source rlcThroughputDl
attr title "Throughput at the rlc layer DL"
attr unit Bps
vector 89 SingleCell_Standalone.ue[1].cellularNic.nrRlc.um rlcPacketLossDl:vector ETV
attr recordingmode vector
attr source rlcPacketLossDl
attr title "rlc Packet Loss"
attr unit ""
vector 90 SingleCell_Standalone.ue[1].cellularNic.nrRlc.um rlcPacketLossTotal:vector ETV
attr recordingmode vector
attr source rlcPacketLossTotal
attr title "rlc Packet Loss"
attr unit ""
vector 91 SingleCell_Standalone.ue[1].cellularNic.nrRlc.um rlcDelayDl:vector ETV
attr recordingmode vector
attr source rlcDelayDl
attr title "Delay at the rlc layer DL"
attr unit s
vector 92 SingleCell_Standalone.ue[1].cellularNic.nrRlc.um sentPacketToUpperLayer:vector(packetBytes) ETV
attr interpolationmode none
attr recordingmode vector(packetBytes)
attr source sentPacketToUpperLayer
vector 93 SingleCell_Standalone.ue[1].cellularNic.nrRlc.um rlcPduPacketLossDl:vector ETV
attr recordingmode vector
attr source rlcPduPacketLossDl
attr title "rlc Packet Loss"
attr unit ""
vector 94 SingleCell_Standalone.ue[1].cellularNic.pdcpRrc receivedPacketFromLowerLayer:vector(packetBytes) ETV
attr interpolationmode none
attr recordingmode vector(packetBytes)
attr source receivedPacketFromLowerLayer
vector 95 SingleCell_Standalone.ue[1].cellularNic.pdcpRrc sentPacketToUpperLayer:vector(packetBytes) ETV
attr interpolationmode none
attr recordingmode vector(packetBytes)
attr source sentPacketToUpperLayer
vector 96 SingleCell_Standalone.ue[1].udp packetReceived:vector(packetBytes) ETV
attr interpolationmode none
attr recordingmode vector(packetBytes)
attr source packetReceived
attr title "packets received, packetBytes"
vector 97 SingleCell_Standalone.ue[1].app[0] cbrFrameDelay:vector ETV
attr recordingmode vector
attr source cbrFrameDelaySignal
attr title "Cbr Frame Delay"
attr unit s
vector 98 SingleCell_Standalone.ue[1].app[0] cbrRcvdPkt:vector ETV
attr recordingmode vector
attr source cbrRcvdPkt
attr title "Received packet ID"
attr unit ""
vector 99 SingleCell_Standalone.ue[2].cellularNic.nrMac sentPacketToLowerLayer:vector(packetBytes) ETV
attr interpolationmode none
attr recordingmode vector(packetBytes)
attr source sentPacketToLowerLayer
vector 100 SingleCell_Standalone.ue[5].cellularNic.nrMac sentPacketToLowerLayer:vector(packetBytes) ETV
attr interpolationmode none
attr recordingmode vector(packetBytes)
attr source sentPacketToLowerLayer
vector 101 SingleCell_Standalone.ue[5].cellularNic.nrMac sentPacketToUpperLayer:vector(packetBytes) ETV
attr interpolationmode none
attr recordingmode vector(packetBytes)
attr source sentPacketToUpperLayer
vector 102 SingleCell_Standalone.ue[5].cellularNic.nrRlc.um receivedPacketFromLowerLayer:vector(packetBytes) ETV
attr interpolationmode none
attr recordingmode vector(packetBytes)
attr source receivedPacketFromLowerLayer
vector 103 SingleCell_Standalone.ue[5].cellularNic.nrRlc.um rlcPduThroughputDl:vector ETV
attr recordingmode vector
attr source rlcPduThroughputDl
attr title "Throughput at the rlc layer DL"
attr unit Bps
vector 104 SingleCell_Standalone.ue[5].cellularNic.nrRlc.um rlcPduDelayDl:vector ETV
attr recordingmode vector
attr source rlcPduDelayDl
attr title "Delay at the rlc layer UL"
attr unit s
vector 105 SingleCell_Standalone.ue[5].cellularNic.nrRlc.um rlcPduPacketLossDl:vector ETV
attr recordingmode vector
attr source rlcPduPacketLossDl
attr title "rlc Packet Loss"
attr unit ""
vector 106 SingleCell_Standalone.ue[8].cellularNic.nrMac sentPacketToLowerLayer:vector(packetBytes) ETV
attr interpolationmode none
attr recordingmode vector(packetBytes)
attr source sentPacketToLowerLayer
vector 107 SingleCell_Standalone.ue[8].cellularNic.nrMac sentPacketToUpperLayer:vector(packetBytes) ETV
attr interpolationmode none
attr recordingmode vector(packetBytes)
attr source sentPacketToUpperLayer
vector 108 SingleCell_Standalone.ue[8].cellularNic.nrRlc.um receivedPacketFromLowerLayer:vector(packetBytes) ETV
attr interpolationmode none
attr recordingmode vector(packetBytes)
attr source receivedPacketFromLowerLayer
vector 109 SingleCell_Standalone.ue[8].cellularNic.nrRlc.um rlcPduThroughputDl:vector ETV
attr recordingmode vector
attr source rlcPduThroughputDl
attr title "Throughput at the rlc layer DL"
attr unit Bps
vector 110 SingleCell_Standalone.ue[8].cellularNic.nrRlc.um rlcPduDelayDl:vector ETV
attr recordingmode vector
attr source rlcPduDelayDl
attr title "Delay at the rlc layer UL"
attr unit s
vector 111 SingleCell_Standalone.ue[8].cellularNic.nrRlc.um rlcThroughputDl:vector ETV
attr recordingmode vector
attr source rlcThroughputDl
attr title "Throughput at the rlc layer DL"
attr unit Bps
vector 112 SingleCell_Standalone.ue[8].cellularNic.nrRlc.um rlcPacketLossDl:vector ETV
attr recordingmode vector
attr source rlcPacketLossDl
attr title "rlc Packet Loss"
attr unit ""
vector 113 SingleCell_Standalone.ue[8].cellularNic.nrRlc.um rlcPacketLossTotal:vector ETV
attr recordingmode vector
attr source rlcPacketLossTotal
attr title "rlc Packet Loss"
attr unit ""
vector 114 SingleCell_Standalone.ue[8].cellularNic.nrRlc.um rlcDelayDl:vector ETV
attr recordingmode vector
attr source rlcDelayDl
attr title "Delay at the rlc layer DL"
attr unit s
vector 115 SingleCell_Standalone.ue[8].cellularNic.nrRlc.um sentPacketToUpperLayer:vector(packetBytes) ETV
attr interpolationmode none
attr recordingmode vector(packetBytes)
attr source sentPacketToUpperLayer
vector 116 SingleCell_Standalone.ue[8].cellularNic.nrRlc.um rlcPduPacketLossDl:vector ETV
attr recordingmode vector
attr source rlcPduPacketLossDl
attr title "rlc Packet Loss"
attr unit ""
vector 117 SingleCell_Standalone.ue[8].cellularNic.pdcpRrc receivedPacketFromLowerLayer:vector(packetBytes) ETV
attr interpolationmode none
attr recordingmode vector(packetBytes)
attr source receivedPacketFromLowerLayer
vector 118 SingleCell_Standalone.ue[8].cellularNic.pdcpRrc sentPacketToUpperLayer:vector(packetBytes) ETV
attr interpolationmode none
attr recordingmode vector(packetBytes)
attr source sentPacketToUpperLayer
vector 119 SingleCell_Standalone.ue[8].udp packetReceived:vector(packetBytes) ETV
attr interpolationmode none
attr recordingmode vector(packetBytes)
attr source packetReceived
attr title "packets received, packetBytes"
vector 120 SingleCell_Standalone.ue[8].app[0] cbrFrameDelay:vector ETV
attr recordingmode vector
attr source cbrFrameDelaySignal
attr title "Cbr Frame Delay"
attr unit s
vector 121 SingleCell_Standalone.ue[8].app[0] cbrRcvdPkt:vector ETV
attr recordingmode vector
attr source cbrRcvdPkt
attr title "Received packet ID"
attr unit ""
vector 122 SingleCell_Standalone.gnb.cellularNic.mac sentPacketToLowerLayer:vector(packetBytes) ETV
attr interpolationmode none
attr recordingmode vector(packetBytes)
attr source sentPacketToLowerLayer
vector 123 SingleCell_Standalone.gnb.cellularNic.mac receivedPacketFromLowerLayer:vector(packetBytes) ETV
attr interpolationmode none
attr recordingmode vector(packetBytes)
attr source receivedPacketFromLowerLayer
vector 124 SingleCell_Standalone.ue[1].cellularNic.nrMac harqErrorRate_1st_Dl:vector ETV
attr recordingmode vector
attr source harqErrorRate_1st_Dl
attr title "Harq Error Rate Dl (1st tx)"
attr unit ""
vector 125 SingleCell_Standalone.ue[1].cellularNic.nrMac harqErrorRateDl:vector ETV
attr recordingmode vector
attr source harqErrorRateDl
attr title "Harq Error Rate Dl"
attr unit ""
vector 126 SingleCell_Standalone.ue[1].cellularNic.nrMac harqTxAttemptsDl:vector ETV
attr recordingmode vector
attr source harqTxAttemptsDl
attr title "Harq Tx Attempts Dl"
attr unit ""
vector 127 SingleCell_Standalone.ue[2].cellularNic.nrMac harqErrorRate_2nd_Dl:vector ETV
attr recordingmode vector
attr source harqErrorRate_2nd_Dl
attr title "Harq Error Rate Dl (2nd tx)"
attr unit ""
vector 128 SingleCell_Standalone.ue[2].cellularNic.nrMac harqErrorRateDl:vector ETV
attr recordingmode vector
attr source harqErrorRateDl
attr title "Harq Error Rate Dl"
attr unit ""
vector 129 SingleCell_Standalone.ue[2].cellularNic.nrMac harqTxAttemptsDl:vector ETV
attr recordingmode vector
attr source harqTxAttemptsDl
attr title "Harq Tx Attempts Dl"
attr unit ""
vector 130 SingleCell_Standalone.ue[8].cellularNic.nrMac harqErrorRate_1st_Dl:vector ETV
attr recordingmode vector
attr source harqErrorRate_1st_Dl
attr title "Harq Error Rate Dl (1st tx)"
attr unit ""
vector 131 SingleCell_Standalone.ue[8].cellularNic.nrMac harqErrorRateDl:vector ETV
attr recordingmode vector
attr source harqErrorRateDl
attr title "Harq Error Rate Dl"
attr unit ""
vector 132 SingleCell_Standalone.ue[8].cellularNic.nrMac harqTxAttemptsDl:vector ETV
attr recordingmode vector
attr source harqTxAttemptsDl
attr title "Harq Tx Attempts Dl"
attr unit ""
vector 133 SingleCell_Standalone.ue[2].cellularNic.nrPhy averageCqiDl:vector ETV
attr recordingmode vector
attr source averageCqiDl
attr title "Average Cqi reported in DL"
attr unit cqi
vector 134 SingleCell_Standalone.ue[2].cellularNic.nrChannelModel[0] distance:vector ETV
attr recordingmode vector
attr source distance
attr title "distance between UE and serving base station"
attr unit meters
vector 135 SingleCell_Standalone.ue[2].cellularNic.nrMac receivedPacketFromLowerLayer:vector(packetBytes) ETV
attr interpolationmode none
attr recordingmode vector(packetBytes)
attr source receivedPacketFromLowerLayer
vector 136 SingleCell_Standalone.ue[3].cellularNic.nrPhy averageCqiDl:vector ETV
attr recordingmode vector
attr source averageCqiDl
attr title "Average Cqi reported in DL"
attr unit cqi
vector 137 SingleCell_Standalone.ue[3].cellularNic.nrChannelModel[0] distance:vector ETV
attr recordingmode vector
attr source distance
attr title "distance between UE and serving base station"
attr unit meters
vector 138 SingleCell_Standalone.ue[3].cellularNic.nrChannelModel[0] rcvdSinrDl:vector ETV
attr recordingmode vector
attr source rcvdSinrDl
attr title "SINR measured at packet reception, DL"
attr unit dB
vector 139 SingleCell_Standalone.ue[3].cellularNic.nrMac receivedPacketFromLowerLayer:vector(packetBytes) ETV
attr interpolationmode none
attr recordingmode vector(packetBytes)
attr source receivedPacketFromLowerLayer
vector 140 SingleCell_Standalone.ue[7].cellularNic.nrPhy averageCqiDl:vector ETV
attr recordingmode vector
attr source averageCqiDl
attr title "Average Cqi reported in DL"
attr unit cqi
vector 141 SingleCell_Standalone.ue[7].cellularNic.nrChannelModel[0] distance:vector ETV
attr recordingmode vector
attr source distance
attr title "distance between UE and serving base station"
attr unit meters
vector 142 SingleCell_Standalone.ue[7].cellularNic.nrChannelModel[0] rcvdSinrDl:vector ETV
attr recordingmode vector
attr source rcvdSinrDl
attr title "SINR measured at packet reception, DL"
attr unit dB
vector 143 SingleCell_Standalone.ue[7].cellularNic.nrMac receivedPacketFromLowerLayer:vector(packetBytes) ETV
attr interpolationmode none
attr recordingmode vector(packetBytes)
attr source receivedPacketFromLowerLayer
vector 144 SingleCell_Standalone.ue[5].cellularNic.nrPhy averageCqiDl:vector ETV
attr recordingmode vector
attr source averageCqiDl
attr title "Average Cqi reported in DL"
attr unit cqi
vector 145 SingleCell_Standalone.ue[5].cellularNic.nrChannelModel[1] distance:vector ETV
attr recordingmode vector
attr source distance
attr title "distance between UE and serving base station"
attr unit meters
vector 146 SingleCell_Standalone.ue[5].cellularNic.nrChannelModel[1] rcvdSinrDl:vector ETV
attr recordingmode vector
attr source rcvdSinrDl
attr title "SINR measured at packet reception, DL"
attr unit dB
vector 147 SingleCell_Standalone.ue[5].cellularNic.nrMac receivedPacketFromLowerLayer:vector(packetBytes) ETV
attr interpolationmode none
attr recordingmode vector(packetBytes)
attr source receivedPacketFromLowerLayer
vector 148 SingleCell_Standalone.server.udp packetSent:vector(packetBytes) ETV
attr interpolationmode none
attr recordingmode vector(packetBytes)
attr source packetSent
attr title "packets sent, packetBytes"
vector 149 SingleCell_Standalone.server.ppp[0].queue incomingPacketLengths:vector ETV
attr interpolationmode none
attr recordingmode vector
attr source packetLength(packetPushStarted)
attr title "incoming packet lengths"
attr unit b
vector 150 SingleCell_Standalone.server.ppp[0].queue queueingTime:vector ETV
attr interpolationmode none
attr recordingmode vector
attr source queueingTime(packetPulled)
attr title "queueing times"
attr unit s
vector 151 SingleCell_Standalone.server.ppp[0].queue outgoingPacketLengths:vector ETV
attr interpolationmode none
attr recordingmode vector
attr source packetLength(packetPulled)
attr title "outgoing packet lengths"
attr unit b
vector 152 SingleCell_Standalone.server.ppp[0].ppp rcvdPkFromHl:vector(packetBytes) ETV
attr interpolationmode none
attr recordingmode vector(packetBytes)
attr source packetReceivedFromUpper
attr title "packets received from higher layer, packetBytes"
vector 153 SingleCell_Standalone.server.ppp[0].ppp transmissionState:vector ETV
attr interpolationmode sample-hold
attr recordingmode vector
attr source transmissionStateChanged
attr title "tx state"
vector 154 SingleCell_Standalone.server.ppp[0].ppp txPk:vector(packetBytes) ETV
attr interpolationmode none
attr recordingmode vector(packetBytes)
attr source packetSentToLower
attr title "packets transmitted, packetBytes"
vector 155 SingleCell_Standalone.router.ppp[0].ppp rxPkOk:vector(packetBytes) ETV
attr interpolationmode none
attr recordingmode vector(packetBytes)
attr source rxPkOk
attr title "packets received OK, packetBytes"
vector 156 SingleCell_Standalone.router.ppp[0].ppp passedUpPk:vector(packetBytes) ETV
attr interpolationmode none
attr recordingmode vector(packetBytes)
attr source packetSentToUpper
attr title "packets passed to higher layer, packetBytes"
vector 157 SingleCell_Standalone.router.ppp[1].queue incomingPacketLengths:vector ETV
attr interpolationmode none
attr recordingmode vector
attr source packetLength(packetPushStarted)
attr title "incoming packet lengths"
attr unit b
vector 158 SingleCell_Standalone.router.ppp[1].queue queueingTime:vector ETV
attr interpolationmode none
attr recordingmode vector
attr source queueingTime(packetPulled)
attr title "queueing times"
attr unit s
vector 159 SingleCell_Standalone.router.ppp[1].queue outgoingPacketLengths:vector ETV
attr interpolationmode none
attr recordingmode vector
attr source packetLength(packetPulled)
attr title "outgoing packet lengths"
attr unit b
vector 160 SingleCell_Standalone.router.ppp[1].ppp rcvdPkFromHl:vector(packetBytes) ETV
attr interpolationmode none
attr recordingmode vector(packetBytes)
attr source packetReceivedFromUpper
attr title "packets received from higher layer, packetBytes"
vector 161 SingleCell_Standalone.router.ppp[1].ppp transmissionState:vector ETV
attr interpolationmode sample-hold
attr recordingmode vector
attr source transmissionStateChanged
attr title "tx state"
vector 162 SingleCell_Standalone.router.ppp[1].ppp txPk:vector(packetBytes) ETV
attr interpolationmode none
attr recordingmode vector(packetBytes)
attr source packetSentToLower
attr title "packets transmitted, packetBytes"
vector 163 SingleCell_Standalone.upf.pppIf.ppp rxPkOk:vector(packetBytes) ETV
attr interpolationmode none
attr recordingmode vector(packetBytes)
attr source rxPkOk
attr title "packets received OK, packetBytes"
vector 164 SingleCell_Standalone.upf.pppIf.ppp passedUpPk:vector(packetBytes) ETV
attr interpolationmode none
attr recordingmode vector(packetBytes)
attr source packetSentToUpper
attr title "packets passed to higher layer, packetBytes"
vector 165 SingleCell_Standalone.upf.udp packetSent:vector(packetBytes) ETV
attr interpolationmode none
attr recordingmode vector(packetBytes)
attr source packetSent
attr title "packets sent, packetBytes"
vector 166 SingleCell_Standalone.upf.ppp[0].queue incomingPacketLengths:vector ETV
attr interpolationmode none
attr recordingmode vector
attr source packetLength(packetPushStarted)
attr title "incoming packet lengths"
attr unit b
vector 167 SingleCell_Standalone.upf.ppp[0].queue queueingTime:vector ETV
attr interpolationmode none
attr recordingmode vector
attr source queueingTime(packetPulled)
attr title "queueing times"
attr unit s
vector 168 SingleCell_Standalone.upf.ppp[0].queue outgoingPacketLengths:vector ETV
attr interpolationmode none
attr recordingmode vector
attr source packetLength(packetPulled)
attr title "outgoing packet lengths"
attr unit b
vector 169 SingleCell_Standalone.upf.ppp[0].ppp rcvdPkFromHl:vector(packetBytes) ETV
attr interpolationmode none
attr recordingmode vector(packetBytes)
attr source packetReceivedFromUpper
attr title "packets received from higher layer, packetBytes"
vector 170 SingleCell_Standalone.upf.ppp[0].ppp transmissionState:vector ETV
attr interpolationmode sample-hold
attr recordingmode vector
attr source transmissionStateChanged
attr title "tx state"
vector 171 SingleCell_Standalone.upf.ppp[0].ppp txPk:vector(packetBytes) ETV
attr interpolationmode none
attr recordingmode vector(packetBytes)
attr source packetSentToLower
attr title "packets transmitted, packetBytes"
vector 172 SingleCell_Standalone.iUpf.ppp[0].ppp rxPkOk:vector(packetBytes) ETV
attr interpolationmode none
attr recordingmode vector(packetBytes)
attr source rxPkOk
attr title "packets received OK, packetBytes"
vector 173 SingleCell_Standalone.iUpf.ppp[0].ppp passedUpPk:vector(packetBytes) ETV
attr interpolationmode none
attr recordingmode vector(packetBytes)
attr source packetSentToUpper
attr title "packets passed to higher layer, packetBytes"
vector 174 SingleCell_Standalone.iUpf.ppp[1].queue incomingPacketLengths:vector ETV
attr interpolationmode none
attr recordingmode vector
attr source packetLength(packetPushStarted)
attr title "incoming packet lengths"
attr unit b
vector 175 SingleCell_Standalone.iUpf.ppp[1].queue queueingTime:vector ETV
attr interpolationmode none
attr recordingmode vector
attr source queueingTime(packetPulled)
attr title "queueing times"
attr unit s
vector 176 SingleCell_Standalone.iUpf.ppp[1].queue outgoingPacketLengths:vector ETV
attr interpolationmode none
attr recordingmode vector
attr source packetLength(packetPulled)
attr title "outgoing packet lengths"
attr unit b
vector 177 SingleCell_Standalone.iUpf.ppp[1].ppp rcvdPkFromHl:vector(packetBytes) ETV
attr interpolationmode none
attr recordingmode vector(packetBytes)
attr source packetReceivedFromUpper
attr title "packets received from higher layer, packetBytes"
vector 178 SingleCell_Standalone.iUpf.ppp[1].ppp transmissionState:vector ETV
attr interpolationmode sample-hold
attr recordingmode vector
attr source transmissionStateChanged
attr title "tx state"
vector 179 SingleCell_Standalone.iUpf.ppp[1].ppp txPk:vector(packetBytes) ETV
attr interpolationmode none
attr recordingmode vector(packetBytes)
attr source packetSentToLower
attr title "packets transmitted, packetBytes"
vector 180 SingleCell_Standalone.gnb.pppIf.ppp rxPkOk:vector(packetBytes) ETV
attr interpolationmode none
attr recordingmode vector(packetBytes)
attr source rxPkOk
attr title "packets received OK, packetBytes"
vector 181 SingleCell_Standalone.gnb.pppIf.ppp passedUpPk:vector(packetBytes) ETV
attr interpolationmode none
attr recordingmode vector(packetBytes)
attr source packetSentToUpper
attr title "packets passed to higher layer, packetBytes"
vector 182 SingleCell_Standalone.gnb.udp packetReceived:vector(packetBytes) ETV
attr interpolationmode none
attr recordingmode vector(packetBytes)
attr source packetReceived
attr title "packets received, packetBytes"
vector 183 SingleCell_Standalone.gnb.cellularNic.pdcpRrc receivedPacketFromUpperLayer:vector(packetBytes) ETV
attr interpolationmode none
attr recordingmode vector(packetBytes)
attr source receivedPacketFromUpperLayer
vector 184 SingleCell_Standalone.gnb.cellularNic.pdcpRrc sentPacketToLowerLayer:vector(packetBytes) ETV
attr interpolationmode none
attr recordingmode vector(packetBytes)
attr source sentPacketToLowerLayer
vector 185 SingleCell_Standalone.gnb.cellularNic.rlc.um receivedPacketFromUpperLayer:vector(packetBytes) ETV
attr interpolationmode none
attr recordingmode vector(packetBytes)
attr source receivedPacketFromUpperLayer
vector 186 SingleCell_Standalone.bgCell[0].bgTrafficGenerator.bgUE[0].generator bgAverageCqiDl:vector ETV
attr recordingmode vector
attr source bgAverageCqiDl
attr title "Average DL CQI for background UEs"
attr unit ""
vector 187 SingleCell_Standalone.bgCell[0].bgTrafficGenerator.bgUE[0].generator bgHarqErrorRateDl:vector ETV
attr recordingmode vector
attr source bgHarqErrorRateDl
attr title "Average DL HARQ error rate for background UEs"
attr unit ""
vector 188 SingleCell_Standalone.bgCell[1].bgTrafficGenerator.bgUE[2].generator bgAverageCqiDl:vector ETV
attr recordingmode vector
attr source bgAverageCqiDl
attr title "Average DL CQI for background UEs"
attr unit ""
vector 189 SingleCell_Standalone.bgCell[1].bgTrafficGenerator.bgUE[2].generator bgHarqErrorRateDl:vector ETV
attr recordingmode vector
attr source bgHarqErrorRateDl
attr title "Average DL HARQ error rate for background UEs"
attr unit ""
vector 190 SingleCell_Standalone.ue[0].cellularNic.nrRlc.um rlcThroughputDl:vector ETV
attr recordingmode vector
attr source rlcThroughputDl
attr title "Throughput at the rlc layer DL"
attr unit Bps
vector 191 SingleCell_Standalone.ue[0].cellularNic.nrRlc.um rlcPacketLossDl:vector ETV
attr recordingmode vector
attr source rlcPacketLossDl
attr title "rlc Packet Loss"
attr unit ""
vector 192 SingleCell_Standalone.ue[0].cellularNic.nrRlc.um rlcPacketLossTotal:vector ETV
attr recordingmode vector
attr source rlcPacketLossTotal
attr title "rlc Packet Loss"
attr unit ""
vector 193 SingleCell_Standalone.ue[0].cellularNic.nrRlc.um rlcDelayDl:vector ETV
attr recordingmode vector
attr source rlcDelayDl
attr title "Delay at the rlc layer DL"
attr unit s
vector 194 SingleCell_Standalone.ue[0].cellularNic.nrRlc.um sentPacketToUpperLayer:vector(packetBytes) ETV
attr interpolationmode none
attr recordingmode vector(packetBytes)
attr source sentPacketToUpperLayer
vector 195 SingleCell_Standalone.ue[0].cellularNic.pdcpRrc receivedPacketFromLowerLayer:vector(packetBytes) ETV
attr interpolationmode none
attr recordingmode vector(packetBytes)
attr source receivedPacketFromLowerLayer
vector 196 SingleCell_Standalone.ue[0].cellularNic.pdcpRrc sentPacketToUpperLayer:vector(packetBytes) ETV
attr interpolationmode none
attr recordingmode vector(packetBytes)
attr source sentPacketToUpperLayer
vector 197 SingleCell_Standalone.ue[0].udp packetReceived:vector(packetBytes) ETV
attr interpolationmode none
attr recordingmode vector(packetBytes)
attr source packetReceived
attr title "packets received, packetBytes"
vector 198 SingleCell_Standalone.ue[0].app[0] cbrReceivedBytes:vector ETV
attr recordingmode vector
attr source cbrReceivedBytesSignal
attr title "Bytes received at the application level"
attr unit Bps
vector 199 SingleCell_Standalone.ue[0].app[0] cbrFrameDelay:vector ETV
attr recordingmode vector
attr source cbrFrameDelaySignal
attr title "Cbr Frame Delay"
attr unit s
vector 200 SingleCell_Standalone.ue[0].app[0] cbrRcvdPkt:vector ETV
attr recordingmode vector
attr source cbrRcvdPkt
attr title "Received packet ID"
attr unit ""
vector 201 SingleCell_Standalone.ue[2].cellularNic.nrMac sentPacketToUpperLayer:vector(packetBytes) ETV
attr interpolationmode none
attr recordingmode vector(packetBytes)
attr source sentPacketToUpperLayer
vector 202 SingleCell_Standalone.ue[2].cellularNic.nrRlc.um receivedPacketFromLowerLayer:vector(packetBytes) ETV
attr interpolationmode none
attr recordingmode vector(packetBytes)
attr source receivedPacketFromLowerLayer
vector 203 SingleCell_Standalone.ue[2].cellularNic.nrRlc.um rlcPduPacketLossDl:vector ETV
attr recordingmode vector
attr source rlcPduPacketLossDl
attr title "rlc Packet Loss"
attr unit ""
vector 204 SingleCell_Standalone.ue[2].cellularNic.nrRlc.um rlcPduThroughputDl:vector ETV
attr recordingmode vector
attr source rlcPduThroughputDl
attr title "Throughput at the rlc layer DL"
attr unit Bps
vector 205 SingleCell_Standalone.ue[2].cellularNic.nrRlc.um rlcPduDelayDl:vector ETV
attr recordingmode vector
attr source rlcPduDelayDl
attr title "Delay at the rlc layer UL"
attr unit s
vector 206 SingleCell_Standalone.ue[0].cellularNic.nrMac harqErrorRate_1st_Dl:vector ETV
attr recordingmode vector
attr source harqErrorRate_1st_Dl
attr title "Harq Error Rate Dl (1st tx)"
attr unit ""
vector 207 SingleCell_Standalone.ue[0].cellularNic.nrMac harqErrorRateDl:vector ETV
attr recordingmode vector
attr source harqErrorRateDl
attr title "Harq Error Rate Dl"
attr unit ""
vector 208 SingleCell_Standalone.ue[0].cellularNic.nrMac harqTxAttemptsDl:vector ETV
attr recordingmode vector
attr source harqTxAttemptsDl
attr title "Harq Tx Attempts Dl"
attr unit ""
vector 209 SingleCell_Standalone.ue[2].cellularNic.nrMac harqErrorRate_1st_Dl:vector ETV
attr recordingmode vector
attr source harqErrorRate_1st_Dl
attr title "Harq Error Rate Dl (1st tx)"
attr unit ""
vector 210 SingleCell_Standalone.ue[5].cellularNic.nrMac harqErrorRate_2nd_Dl:vector ETV
attr recordingmode vector
attr source harqErrorRate_2nd_Dl
attr title "Harq Error Rate Dl (2nd tx)"
attr unit ""
vector 211 SingleCell_Standalone.ue[5].cellularNic.nrMac harqErrorRateDl:vector ETV
attr recordingmode vector
attr source harqErrorRateDl
attr title "Harq Error Rate Dl"
attr unit ""
vector 212 SingleCell_Standalone.ue[5].cellularNic.nrMac harqTxAttemptsDl:vector ETV
attr recordingmode vector
attr source harqTxAttemptsDl
attr title "Harq Tx Attempts Dl"
attr unit ""
vector 213 SingleCell_Standalone.bgCell[0].bgTrafficGenerator.bgUE[0].generator bgMeasuredSinrDl:vector ETV
attr recordingmode vector
attr source bgMeasuredSinrDl
attr title "Average DL SINR for background UEs"
attr unit ""
vector 214 SingleCell_Standalone.bgCell[0].bgTrafficGenerator.bgUE[1].generator bgMeasuredSinrDl:vector ETV
attr recordingmode vector
attr source bgMeasuredSinrDl
attr title "Average DL SINR for background UEs"
attr unit ""
vector 215 SingleCell_Standalone.bgCell[0].bgTrafficGenerator.bgUE[2].generator bgMeasuredSinrDl:vector ETV
attr recordingmode vector
attr source bgMeasuredSinrDl
attr title "Average DL SINR for background UEs"
attr unit ""
vector 216 SingleCell_Standalone.bgCell[0].bgTrafficGenerator.bgUE[3].generator bgMeasuredSinrDl:vector ETV
attr recordingmode vector
attr source bgMeasuredSinrDl
attr title "Average DL SINR for background UEs"
attr unit ""
vector 217 SingleCell_Standalone.bgCell[0].bgTrafficGenerator.bgUE[4].generator bgMeasuredSinrDl:vector ETV
attr recordingmode vector
attr source bgMeasuredSinrDl
attr title "Average DL SINR for background UEs"
attr unit ""
vector 218 SingleCell_Standalone.bgCell[0].bgTrafficGenerator.bgUE[5].generator bgMeasuredSinrDl:vector ETV
attr recordingmode vector
attr source bgMeasuredSinrDl
attr title "Average DL SINR for background UEs"
attr unit ""
vector 219 SingleCell_Standalone.bgCell[0].bgTrafficGenerator.bgUE[6].generator bgMeasuredSinrDl:vector ETV
attr recordingmode vector
attr source bgMeasuredSinrDl
attr title "Average DL SINR for background UEs"
attr unit ""
vector 220 SingleCell_Standalone.bgCell[0].bgTrafficGenerator.bgUE[7].generator bgMeasuredSinrDl:vector ETV
attr recordingmode vector
attr source bgMeasuredSinrDl
attr title "Average DL SINR for background UEs"
attr unit ""
vector 221 SingleCell_Standalone.bgCell[0].bgTrafficGenerator.bgUE[8].generator bgMeasuredSinrDl:vector ETV
attr recordingmode vector
attr source bgMeasuredSinrDl
attr title "Average DL SINR for background UEs"
attr unit ""
vector 222 SingleCell_Standalone.bgCell[0].bgTrafficGenerator.bgUE[9].generator bgMeasuredSinrDl:vector ETV
attr recordingmode vector
attr source bgMeasuredSinrDl
attr title "Average DL SINR for background UEs"
attr unit ""
vector 223 SingleCell_Standalone.bgCell[1].bgTrafficGenerator.bgUE[0].generator bgMeasuredSinrDl:vector ETV
attr recordingmode vector
attr source bgMeasuredSinrDl
attr title "Average DL SINR for background UEs"
attr unit ""
vector 224 SingleCell_Standalone.bgCell[1].bgTrafficGenerator.bgUE[1].generator bgMeasuredSinrDl:vector ETV
attr recordingmode vector
attr source bgMeasuredSinrDl
attr title "Average DL SINR for background UEs"
attr unit ""
vector 225 SingleCell_Standalone.bgCell[1].bgTrafficGenerator.bgUE[2].generator bgMeasuredSinrDl:vector ETV
attr recordingmode vector
attr source bgMeasuredSinrDl
attr title "Average DL SINR for background UEs"
attr unit ""
vector 226 SingleCell_Standalone.bgCell[1].bgTrafficGenerator.bgUE[3].generator bgMeasuredSinrDl:vector ETV
attr recordingmode vector
attr source bgMeasuredSinrDl
attr title "Average DL SINR for background UEs"
attr unit ""
vector 227 SingleCell_Standalone.bgCell[1].bgTrafficGenerator.bgUE[4].generator bgMeasuredSinrDl:vector ETV
attr recordingmode vector
attr source bgMeasuredSinrDl
attr title "Average DL SINR for background UEs"
attr unit ""
vector 228 SingleCell_Standalone.bgCell[1].bgTrafficGenerator.bgUE[5].generator bgMeasuredSinrDl:vector ETV
attr recordingmode vector
attr source bgMeasuredSinrDl
attr title "Average DL SINR for background UEs"
attr unit ""
vector 229 SingleCell_Standalone.bgCell[1].bgTrafficGenerator.bgUE[6].generator bgMeasuredSinrDl:vector ETV
attr recordingmode vector
attr source bgMeasuredSinrDl
attr title "Average DL SINR for background UEs"
attr unit ""
vector 230 SingleCell_Standalone.bgCell[1].bgTrafficGenerator.bgUE[7].generator bgMeasuredSinrDl:vector ETV
attr recordingmode vector
attr source bgMeasuredSinrDl
attr title "Average DL SINR for background UEs"
attr unit ""
vector 231 SingleCell_Standalone.bgCell[1].bgTrafficGenerator.bgUE[8].generator bgMeasuredSinrDl:vector ETV
attr recordingmode vector
attr source bgMeasuredSinrDl
attr title "Average DL SINR for background UEs"
attr unit ""
vector 232 SingleCell_Standalone.bgCell[1].bgTrafficGenerator.bgUE[9].generator bgMeasuredSinrDl:vector ETV
attr recordingmode vector
attr source bgMeasuredSinrDl
attr title "Average DL SINR for background UEs"
attr unit ""
vector 233 SingleCell_Standalone.ue[3].cellularNic.nrMac sentPacketToLowerLayer:vector(packetBytes) ETV
attr interpolationmode none
attr recordingmode vector(packetBytes)
attr source sentPacketToLowerLayer
vector 234 SingleCell_Standalone.ue[3].cellularNic.nrMac sentPacketToUpperLayer:vector(packetBytes) ETV
attr interpolationmode none
attr recordingmode vector(packetBytes)
attr source sentPacketToUpperLayer
vector 235 SingleCell_Standalone.ue[3].cellularNic.nrRlc.um receivedPacketFromLowerLayer:vector(packetBytes) ETV
attr interpolationmode none
attr recordingmode vector(packetBytes)
attr source receivedPacketFromLowerLayer
vector 236 SingleCell_Standalone.ue[3].cellularNic.nrRlc.um rlcPduThroughputDl:vector ETV
attr recordingmode vector
attr source rlcPduThroughputDl
attr title "Throughput at the rlc layer DL"
attr unit Bps
vector 237 SingleCell_Standalone.ue[3].cellularNic.nrRlc.um rlcPduDelayDl:vector ETV
attr recordingmode vector
attr source rlcPduDelayDl
attr title "Delay at the rlc layer UL"
attr unit s
vector 238 SingleCell_Standalone.ue[3].cellularNic.nrRlc.um rlcPduPacketLossDl:vector ETV
attr recordingmode vector
attr source rlcPduPacketLossDl
attr title "rlc Packet Loss"
attr unit ""
vector 239 SingleCell_Standalone.ue[7].cellularNic.nrMac sentPacketToLowerLayer:vector(packetBytes) ETV
attr interpolationmode none
attr recordingmode vector(packetBytes)
attr source sentPacketToLowerLayer
vector 240 SingleCell_Standalone.ue[7].cellularNic.nrMac sentPacketToUpperLayer:vector(packetBytes) ETV
attr interpolationmode none
attr recordingmode vector(packetBytes)
attr source sentPacketToUpperLayer
vector 241 SingleCell_Standalone.ue[7].cellularNic.nrRlc.um receivedPacketFromLowerLayer:vector(packetBytes) ETV
attr interpolationmode none
attr recordingmode vector(packetBytes)
attr source receivedPacketFromLowerLayer
vector 242 SingleCell_Standalone.ue[7].cellularNic.nrRlc.um rlcPduThroughputDl:vector ETV
attr recordingmode vector
attr source rlcPduThroughputDl
attr title "Throughput at the rlc layer DL"
attr unit Bps
vector 243 SingleCell_Standalone.ue[7].cellularNic.nrRlc.um rlcPduDelayDl:vector ETV
attr recordingmode vector
attr source rlcPduDelayDl
attr title "Delay at the rlc layer UL"
attr unit s
vector 244 SingleCell_Standalone.ue[7].cellularNic.nrRlc.um rlcPduPacketLossDl:vector ETV
attr recordingmode vector
attr source rlcPduPacketLossDl
attr title "rlc Packet Loss"
attr unit ""
vector 245 SingleCell_Standalone.ue[5].cellularNic.nrMac harqErrorRate_1st_Dl:vector ETV
attr recordingmode vector
attr source harqErrorRate_1st_Dl
attr title "Harq Error Rate Dl (1st tx)"
attr unit ""
vector 246 SingleCell_Standalone.ue[6].cellularNic.nrPhy averageCqiDl:vector ETV
attr recordingmode vector
attr source averageCqiDl
attr title "Average Cqi reported in DL"
attr unit cqi
vector 247 SingleCell_Standalone.ue[6].cellularNic.nrChannelModel[0] distance:vector ETV
attr recordingmode vector
attr source distance
attr title "distance between UE and serving base station"
attr unit meters
vector 248 SingleCell_Standalone.ue[6].cellularNic.nrChannelModel[0] rcvdSinrDl:vector ETV
attr recordingmode vector
attr source rcvdSinrDl
attr title "SINR measured at packet reception, DL"
attr unit dB
vector 249 SingleCell_Standalone.ue[6].cellularNic.nrMac receivedPacketFromLowerLayer:vector(packetBytes) ETV
attr interpolationmode none
attr recordingmode vector(packetBytes)
attr source receivedPacketFromLowerLayer
vector 250 SingleCell_Standalone.ue[2].cellularNic.nrChannelModel[1] distance:vector ETV
attr recordingmode vector
attr source distance
attr title "distance between UE and serving base station"
attr unit meters
vector 251 SingleCell_Standalone.ue[4].cellularNic.nrPhy averageCqiDl:vector ETV
attr recordingmode vector
attr source averageCqiDl
attr title "Average Cqi reported in DL"
attr unit cqi
vector 252 SingleCell_Standalone.ue[4].cellularNic.nrChannelModel[1] distance:vector ETV
attr recordingmode vector
attr source distance
attr title "distance between UE and serving base station"
attr unit meters
vector 253 SingleCell_Standalone.ue[4].cellularNic.nrChannelModel[1] rcvdSinrDl:vector ETV
attr recordingmode vector
attr source rcvdSinrDl
attr title "SINR measured at packet reception, DL"
attr unit dB
vector 254 SingleCell_Standalone.ue[4].cellularNic.nrMac receivedPacketFromLowerLayer:vector(packetBytes) ETV
attr interpolationmode none
attr recordingmode vector(packetBytes)
attr source receivedPacketFromLowerLayer
vector 255 SingleCell_Standalone.ue[3].cellularNic.nrRlc.um rlcThroughputDl:vector ETV
attr recordingmode vector
attr source rlcThroughputDl
attr title "Throughput at the rlc layer DL"
attr unit Bps
vector 256 SingleCell_Standalone.ue[3].cellularNic.nrRlc.um rlcPacketLossDl:vector ETV
attr recordingmode vector
attr source rlcPacketLossDl
attr title "rlc Packet Loss"
attr unit ""
vector 257 SingleCell_Standalone.ue[3].cellularNic.nrRlc.um rlcPacketLossTotal:vector ETV
attr recordingmode vector
attr source rlcPacketLossTotal
attr title "rlc Packet Loss"
attr unit ""
vector 258 SingleCell_Standalone.ue[3].cellularNic.nrRlc.um rlcDelayDl:vector ETV
attr recordingmode vector
attr source rlcDelayDl
attr title "Delay at the rlc layer DL"
attr unit s
vector 259 SingleCell_Standalone.ue[3].cellularNic.nrRlc.um sentPacketToUpperLayer:vector(packetBytes) ETV
attr interpolationmode none
attr recordingmode vector(packetBytes)
attr source sentPacketToUpperLayer
vector 260 SingleCell_Standalone.ue[3].cellularNic.pdcpRrc receivedPacketFromLowerLayer:vector(packetBytes) ETV
attr interpolationmode none
attr recordingmode vector(packetBytes)
attr source receivedPacketFromLowerLayer
vector 261 SingleCell_Standalone.ue[3].cellularNic.pdcpRrc sentPacketToUpperLayer:vector(packetBytes) ETV
attr interpolationmode none
attr recordingmode vector(packetBytes)
attr source sentPacketToUpperLayer
vector 262 SingleCell_Standalone.ue[3].udp packetReceived:vector(packetBytes) ETV
attr interpolationmode none
attr recordingmode vector(packetBytes)
attr source packetReceived
attr title "packets received, packetBytes"
vector 263 SingleCell_Standalone.ue[3].app[0] cbrReceivedBytes:vector ETV
attr recordingmode vector
attr source cbrReceivedBytesSignal
attr title "Bytes received at the application level"
attr unit Bps
vector 264 SingleCell_Standalone.ue[3].app[0] cbrFrameDelay:vector ETV
attr recordingmode vector
attr source cbrFrameDelaySignal
attr title "Cbr Frame Delay"
attr unit s
vector 265 SingleCell_Standalone.ue[3].app[0] cbrRcvdPkt:vector ETV
attr recordingmode vector
attr source cbrRcvdPkt
attr title "Received packet ID"
attr unit ""
vector 266 SingleCell_Standalone.ue[3].cellularNic.nrMac harqErrorRate_1st_Dl:vector ETV
attr recordingmode vector
attr source harqErrorRate_1st_Dl
attr title "Harq Error Rate Dl (1st tx)"
attr unit ""
vector 267 SingleCell_Standalone.ue[3].cellularNic.nrMac harqErrorRateDl:vector ETV
attr recordingmode vector
attr source harqErrorRateDl
attr title "Harq Error Rate Dl"
attr unit ""
vector 268 SingleCell_Standalone.ue[3].cellularNic.nrMac harqTxAttemptsDl:vector ETV
attr recordingmode vector
attr source harqTxAttemptsDl
attr title "Harq Tx Attempts Dl"
attr unit ""
vector 269 SingleCell_Standalone.ue[7].cellularNic.nrMac harqErrorRate_1st_Dl:vector ETV
attr recordingmode vector
attr source harqErrorRate_1st_Dl
attr title "Harq Error Rate Dl (1st tx)"
attr unit ""
vector 270 SingleCell_Standalone.ue[7].cellularNic.nrMac harqErrorRateDl:vector ETV
attr recordingmode vector
attr source harqErrorRateDl
attr title "Harq Error Rate Dl"
attr unit ""
vector 271 SingleCell_Standalone.ue[7].cellularNic.nrMac harqTxAttemptsDl:vector ETV
attr recordingmode vector
attr source harqTxAttemptsDl
attr title "Harq Tx Attempts Dl"
attr unit ""
vector 272 SingleCell_Standalone.ue[4].cellularNic.nrChannelModel[0] distance:vector ETV
attr recordingmode vector
attr source distance
attr title "distance between UE and serving base station"
attr unit meters
vector 273 SingleCell_Standalone.ue[4].cellularNic.nrChannelModel[0] rcvdSinrDl:vector ETV
attr recordingmode vector
attr source rcvdSinrDl
attr title "SINR measured at packet reception, DL"
attr unit dB
vector 274 SingleCell_Standalone.ue[7].cellularNic.nrRlc.um rlcThroughputDl:vector ETV
attr recordingmode vector
attr source rlcThroughputDl
attr title "Throughput at the rlc layer DL"
attr unit Bps
vector 275 SingleCell_Standalone.ue[7].cellularNic.nrRlc.um rlcPacketLossDl:vector ETV
attr recordingmode vector
attr source rlcPacketLossDl
attr title "rlc Packet Loss"
attr unit ""
vector 276 SingleCell_Standalone.ue[7].cellularNic.nrRlc.um rlcPacketLossTotal:vector ETV
attr recordingmode vector
attr source rlcPacketLossTotal
attr title "rlc Packet Loss"
attr unit ""
vector 277 SingleCell_Standalone.ue[7].cellularNic.nrRlc.um rlcDelayDl:vector ETV
attr recordingmode vector
attr source rlcDelayDl
attr title "Delay at the rlc layer DL"
attr unit s
vector 278 SingleCell_Standalone.ue[7].cellularNic.nrRlc.um sentPacketToUpperLayer:vector(packetBytes) ETV
attr interpolationmode none
attr recordingmode vector(packetBytes)
attr source sentPacketToUpperLayer
vector 279 SingleCell_Standalone.ue[7].cellularNic.pdcpRrc receivedPacketFromLowerLayer:vector(packetBytes) ETV
attr interpolationmode none
attr recordingmode vector(packetBytes)
attr source receivedPacketFromLowerLayer
vector 280 SingleCell_Standalone.ue[7].cellularNic.pdcpRrc sentPacketToUpperLayer:vector(packetBytes) ETV
attr interpolationmode none
attr recordingmode vector(packetBytes)
attr source sentPacketToUpperLayer
vector 281 SingleCell_Standalone.ue[7].udp packetReceived:vector(packetBytes) ETV
attr interpolationmode none
attr recordingmode vector(packetBytes)
attr source packetReceived
attr title "packets received, packetBytes"
vector 282 SingleCell_Standalone.ue[7].app[0] cbrReceivedBytes:vector ETV
attr recordingmode vector
attr source cbrReceivedBytesSignal
attr title "Bytes received at the application level"
attr unit Bps
vector 283 SingleCell_Standalone.ue[7].app[0] cbrFrameDelay:vector ETV
attr recordingmode vector
attr source cbrFrameDelaySignal
attr title "Cbr Frame Delay"
attr unit s
vector 284 SingleCell_Standalone.ue[7].app[0] cbrRcvdPkt:vector ETV
attr recordingmode vector
attr source cbrRcvdPkt
attr title "Received packet ID"
attr unit ""
vector 285 SingleCell_Standalone.ue[0].cellularNic.nrChannelModel[0] measuredSinrUl:vector ETV
attr recordingmode vector
attr source measuredSinrUl
attr title "SINR measured at feedback computation, UL"
attr unit dB
vector 286 SingleCell_Standalone.ue[0].cellularNic.nrChannelModel[0] measuredSinrDl:vector ETV
attr recordingmode vector
attr source measuredSinrDl
attr title "SINR measured at feedback computation, DL"
attr unit dB
vector 287 SingleCell_Standalone.ue[0].cellularNic.nrChannelModel[1] measuredSinrUl:vector ETV
attr recordingmode vector
attr source measuredSinrUl
attr title "SINR measured at feedback computation, UL"
attr unit dB
vector 288 SingleCell_Standalone.ue[0].cellularNic.nrChannelModel[1] measuredSinrDl:vector ETV
attr recordingmode vector
attr source measuredSinrDl
attr title "SINR measured at feedback computation, DL"
attr unit dB
vector 289 SingleCell_Standalone.ue[1].cellularNic.nrChannelModel[0] measuredSinrUl:vector ETV
attr recordingmode vector
attr source measuredSinrUl
attr title "SINR measured at feedback computation, UL"
attr unit dB
vector 290 SingleCell_Standalone.ue[1].cellularNic.nrChannelModel[0] measuredSinrDl:vector ETV
attr recordingmode vector
attr source measuredSinrDl
attr title "SINR measured at feedback computation, DL"
attr unit dB
vector 291 SingleCell_Standalone.ue[1].cellularNic.nrChannelModel[1] measuredSinrUl:vector ETV
attr recordingmode vector
attr source measuredSinrUl
attr title "SINR measured at feedback computation, UL"
attr unit dB
vector 292 SingleCell_Standalone.ue[1].cellularNic.nrChannelModel[1] measuredSinrDl:vector ETV
attr recordingmode vector
attr source measuredSinrDl
attr title "SINR measured at feedback computation, DL"
attr unit dB
vector 293 SingleCell_Standalone.ue[2].cellularNic.nrChannelModel[0] measuredSinrUl:vector ETV
attr recordingmode vector
attr source measuredSinrUl
attr title "SINR measured at feedback computation, UL"
attr unit dB
vector 294 SingleCell_Standalone.ue[2].cellularNic.nrChannelModel[0] measuredSinrDl:vector ETV
attr recordingmode vector
attr source measuredSinrDl
attr title "SINR measured at feedback computation, DL"
attr unit dB
vector 295 SingleCell_Standalone.ue[2].cellularNic.nrChannelModel[1] measuredSinrUl:vector ETV
attr recordingmode vector
attr source measuredSinrUl
attr title "SINR measured at feedback computation, UL"
attr unit dB
vector 296 SingleCell_Standalone.ue[2].cellularNic.nrChannelModel[1] measuredSinrDl:vector ETV
attr recordingmode vector
attr source measuredSinrDl
attr title "SINR measured at feedback computation, DL"
attr unit dB
vector 297 SingleCell_Standalone.ue[3].cellularNic.nrChannelModel[0] measuredSinrUl:vector ETV
attr recordingmode vector
attr source measuredSinrUl
attr title "SINR measured at feedback computation, UL"
attr unit dB
vector 298 SingleCell_Standalone.ue[3].cellularNic.nrChannelModel[0] measuredSinrDl:vector ETV
attr recordingmode vector
attr source measuredSinrDl
attr title "SINR measured at feedback computation, DL"
attr unit dB
vector 299 SingleCell_Standalone.ue[3].cellularNic.nrChannelModel[1] measuredSinrUl:vector ETV
attr recordingmode vector
attr source measuredSinrUl
attr title "SINR measured at feedback computation, UL"
attr unit dB
vector 300 SingleCell_Standalone.ue[3].cellularNic.nrChannelModel[1] measuredSinrDl:vector ETV
attr recordingmode vector
attr source measuredSinrDl
attr title "SINR measured at feedback computation, DL"
attr unit dB
vector 301 SingleCell_Standalone.ue[4].cellularNic.nrChannelModel[0] measuredSinrUl:vector ETV
attr recordingmode vector
attr source measuredSinrUl
attr title "SINR measured at feedback computation, UL"
attr unit dB
vector 302 SingleCell_Standalone.ue[4].cellularNic.nrChannelModel[0] measuredSinrDl:vector ETV
attr recordingmode vector
attr source measuredSinrDl
attr title "SINR measured at feedback computation, DL"
attr unit dB
vector 303 SingleCell_Standalone.ue[4].cellularNic.nrChannelModel[1] measuredSinrUl:vector ETV
attr recordingmode vector
attr source measuredSinrUl
attr title "SINR measured at feedback computation, UL"
attr unit dB
vector 304 SingleCell_Standalone.ue[4].cellularNic.nrChannelModel[1] measuredSinrDl:vector ETV
attr recordingmode vector
attr source measuredSinrDl
attr title "SINR measured at feedback computation, DL"
attr unit dB
vector 305 SingleCell_Standalone.ue[5].cellularNic.nrChannelModel[0] measuredSinrUl:vector ETV
attr recordingmode vector
attr source measuredSinrUl
attr title "SINR measured at feedback computation, UL"
attr unit dB
vector 306 SingleCell_Standalone.ue[5].cellularNic.nrChannelModel[0] measuredSinrDl:vector ETV
attr recordingmode vector
attr source measuredSinrDl
attr title "SINR measured at feedback computation, DL"
attr unit dB
vector 307 SingleCell_Standalone.ue[5].cellularNic.nrChannelModel[1] measuredSinrUl:vector ETV
attr recordingmode vector
attr source measuredSinrUl
attr title "SINR measured at feedback computation, UL"
attr unit dB
vector 308 SingleCell_Standalone.ue[5].cellularNic.nrChannelModel[1] measuredSinrDl:vector ETV
attr recordingmode vector
attr source measuredSinrDl
attr title "SINR measured at feedback computation, DL"
attr unit dB
vector 309 SingleCell_Standalone.ue[6].cellularNic.nrChannelModel[0] measuredSinrUl:vector ETV
attr recordingmode vector
attr source measuredSinrUl
attr title "SINR measured at feedback computation, UL"
attr unit dB
vector 310 SingleCell_Standalone.ue[6].cellularNic.nrChannelModel[0] measuredSinrDl:vector ETV
attr recordingmode vector
attr source measuredSinrDl
attr title "SINR measured at feedback computation, DL"
attr unit dB
vector 311 SingleCell_Standalone.ue[6].cellularNic.nrChannelModel[1] measuredSinrUl:vector ETV
attr recordingmode vector
attr source measuredSinrUl
attr title "SINR measured at feedback computation, UL"
attr unit dB
vector 312 SingleCell_Standalone.ue[6].cellularNic.nrChannelModel[1] measuredSinrDl:vector ETV
attr recordingmode vector
attr source measuredSinrDl
attr title "SINR measured at feedback computation, DL"
attr unit dB
vector 313 SingleCell_Standalone.ue[7].cellularNic.nrChannelModel[0] measuredSinrUl:vector ETV
attr recordingmode vector
attr source measuredSinrUl
attr title "SINR measured at feedback computation, UL"
attr unit dB
vector 314 SingleCell_Standalone.ue[7].cellularNic.nrChannelModel[0] measuredSinrDl:vector ETV
attr recordingmode vector
attr source measuredSinrDl
attr title "SINR measured at feedback computation, DL"
attr unit dB
vector 315 SingleCell_Standalone.ue[7].cellularNic.nrChannelModel[1] measuredSinrUl:vector ETV
attr recordingmode vector
attr source measuredSinrUl
attr title "SINR measured at feedback computation, UL"
attr unit dB
vector 316 SingleCell_Standalone.ue[7].cellularNic.nrChannelModel[1] measuredSinrDl:vector ETV
attr recordingmode vector
attr source measuredSinrDl
attr title "SINR measured at feedback computation, DL"
attr unit dB
vector 317 SingleCell_Standalone.ue[8].cellularNic.nrChannelModel[0] measuredSinrUl:vector ETV
attr recordingmode vector
attr source measuredSinrUl
attr title "SINR measured at feedback computation, UL"
attr unit dB
vector 318 SingleCell_Standalone.ue[8].cellularNic.nrChannelModel[0] measuredSinrDl:vector ETV
attr recordingmode vector
attr source measuredSinrDl
attr title "SINR measured at feedback computation, DL"
attr unit dB
vector 319 SingleCell_Standalone.ue[8].cellularNic.nrChannelModel[1] measuredSinrUl:vector ETV
attr recordingmode vector
attr source measuredSinrUl
attr title "SINR measured at feedback computation, UL"
attr unit dB
vector 320 SingleCell_Standalone.ue[8].cellularNic.nrChannelModel[1] measuredSinrDl:vector ETV
attr recordingmode vector
attr source measuredSinrDl
attr title "SINR measured at feedback computation, DL"
attr unit dB
vector 321 SingleCell_Standalone.ue[9].cellularNic.nrChannelModel[0] measuredSinrUl:vector ETV
attr recordingmode vector
attr source measuredSinrUl
attr title "SINR measured at feedback computation, UL"
attr unit dB
vector 322 SingleCell_Standalone.ue[9].cellularNic.nrChannelModel[0] measuredSinrDl:vector ETV
attr recordingmode vector
attr source measuredSinrDl
attr title "SINR measured at feedback computation, DL"
attr unit dB
vector 323 SingleCell_Standalone.ue[9].cellularNic.nrChannelModel[1] measuredSinrUl:vector ETV
attr recordingmode vector
attr source measuredSinrUl
attr title "SINR measured at feedback computation, UL"
attr unit dB
vector 324 SingleCell_Standalone.ue[9].cellularNic.nrChannelModel[1] measuredSinrDl:vector ETV
attr recordingmode vector
attr source measuredSinrDl
attr title "SINR measured at feedback computation, DL"
attr unit dB
vector 325 SingleCell_Standalone.ue[2].cellularNic.nrMac harqErrorRate_3rd_Dl:vector ETV
attr recordingmode vector
attr source harqErrorRate_3rd_Dl
attr title "Harq Error Rate Dl (3rd tx)"
attr unit ""
vector 326 SingleCell_Standalone.ue[9].cellularNic.nrPhy averageCqiDl:vector ETV
attr recordingmode vector
attr source averageCqiDl
attr title "Average Cqi reported in DL"
attr unit cqi
vector 327 SingleCell_Standalone.ue[9].cellularNic.nrChannelModel[0] distance:vector ETV
attr recordingmode vector
attr source distance
attr title "distance between UE and serving base station"
attr unit meters
vector 328 SingleCell_Standalone.ue[9].cellularNic.nrChannelModel[0] rcvdSinrDl:vector ETV
attr recordingmode vector
attr source rcvdSinrDl
attr title "SINR measured at packet reception, DL"
attr unit dB
vector 329 SingleCell_Standalone.ue[9].cellularNic.nrMac receivedPacketFromLowerLayer:vector(packetBytes) ETV
attr interpolationmode none
attr recordingmode vector(packetBytes)
attr source receivedPacketFromLowerLayer
vector 330 SingleCell_Standalone.ue[0].cellularNic.nrPhy averageCqiDl:vector ETV
attr recordingmode vector
attr source averageCqiDl
attr title "Average Cqi reported in DL"
attr unit cqi
vector 331 SingleCell_Standalone.ue[0].cellularNic.nrChannelModel[1] distance:vector ETV
attr recordingmode vector
attr source distance
attr title "distance between UE and serving base station"
attr unit meters
vector 332 SingleCell_Standalone.ue[0].cellularNic.nrChannelModel[1] rcvdSinrDl:vector ETV
attr recordingmode vector
attr source rcvdSinrDl
attr title "SINR measured at packet reception, DL"
attr unit dB
vector 333 SingleCell_Standalone.ue[0].cellularNic.nrMac receivedPacketFromLowerLayer:vector(packetBytes) ETV
attr interpolationmode none
attr recordingmode vector(packetBytes)
attr source receivedPacketFromLowerLayer
vector 334 SingleCell_Standalone.bgCell[0].bgTrafficGenerator.bgUE[5].generator bgAverageCqiDl:vector ETV
attr recordingmode vector
attr source bgAverageCqiDl
attr title "Average DL CQI for background UEs"
attr unit ""
vector 335 SingleCell_Standalone.bgCell[0].bgTrafficGenerator.bgUE[5].generator bgHarqErrorRateDl:vector ETV
attr recordingmode vector
attr source bgHarqErrorRateDl
attr title "Average DL HARQ error rate for background UEs"
attr unit ""
vector 336 SingleCell_Standalone.ue[4].cellularNic.nrMac sentPacketToLowerLayer:vector(packetBytes) ETV
attr interpolationmode none
attr recordingmode vector(packetBytes)
attr source sentPacketToLowerLayer
vector 337 SingleCell_Standalone.ue[4].cellularNic.nrMac sentPacketToUpperLayer:vector(packetBytes) ETV
attr interpolationmode none
attr recordingmode vector(packetBytes)
attr source sentPacketToUpperLayer
vector 338 SingleCell_Standalone.ue[4].cellularNic.nrRlc.um receivedPacketFromLowerLayer:vector(packetBytes) ETV
attr interpolationmode none
attr recordingmode vector(packetBytes)
attr source receivedPacketFromLowerLayer
vector 339 SingleCell_Standalone.ue[4].cellularNic.nrRlc.um rlcPduThroughputDl:vector ETV
attr recordingmode vector
attr source rlcPduThroughputDl
attr title "Throughput at the rlc layer DL"
attr unit Bps
vector 340 SingleCell_Standalone.ue[4].cellularNic.nrRlc.um rlcPduDelayDl:vector ETV
attr recordingmode vector
attr source rlcPduDelayDl
attr title "Delay at the rlc layer UL"
attr unit s
vector 341 SingleCell_Standalone.ue[4].cellularNic.nrRlc.um rlcPduPacketLossDl:vector ETV
attr recordingmode vector
attr source rlcPduPacketLossDl
attr title "rlc Packet Loss"
attr unit ""
vector 342 SingleCell_Standalone.ue[6].cellularNic.nrMac sentPacketToLowerLayer:vector(packetBytes) ETV
attr interpolationmode none
attr recordingmode vector(packetBytes)
attr source sentPacketToLowerLayer
[...]
233	31850583 6864 900200 1076107 8.362 9.993 336 1 1 336 336
234	31857447 7536 900200 1076107 8.362 9.993 336 165 868 169428 115916316
235	31864983 7536 900203 1076110 8.362 9.993 336 165 868 169428 115916316
236	31872519 6864 900203 1076110 8.362 9.993 336 0 0 0 0
237	31879383 8208 900203 1076110 8.362 9.993 336 0.004 0.004 1.344 0.005376
238	31887591 6864 900203 1076110 8.362 9.993 336 0 0 0 0
239	31894455 9015 900214 1076183 8.362 9.994 441 1 1 441 441
240	31903470 9806 900214 1076183 8.362 9.994 437 139 703 169630 93205906
241	31913276 9806 900217 1076186 8.362 9.994 437 139 703 169630 93205906
242	31923082 8932 900217 1076186 8.362 9.994 437 0 0 0 0
243	31932014 10676 900217 1076186 8.362 9.994 437 0.004 0.01 1.772 0.0073280000000001
244	31942690 8932 900217 1076186 8.362 9.994 437 0 0 0 0
245	31951622 12606 899543 1076525 8.355 9.997 617 0 1 612 612
246	31964228 7904 900235 1076145 8.362 9.993 369 13 15 5375 78545
247	31972132 9955 900356 1076145 8.363 9.993 289 365.44493995446 365.44493995446 105613.58764684 38595951.195975
248	31982087 9905 900356 1076145 8.363 9.993 289 32.87355278057 37.581746716807 9911.621736721 340098.98264809
249	31991992 8259 900236 1076146 8.362 9.993 369 26 870 170232 106263018
250	32000251 18790 899550 1076532 8.355 9.997 547 523.99597920921 523.99597920921 286625.80062743 150190767.0664
251	32019041 7226 900231 1076143 8.362 9.993 337 14 15 4952 72838
252	32026267 3452 901459 1076028 8.373 9.992 103 468.6592467079 468.6592467079 48271.902410914 22623073.421056
253	32029719 3553 901459 1076028 8.373 9.992 103 32.538858562629 36.929384091061 3432.5346721266 114675.59813684
254	32033272 7556 900232 1076144 8.362 9.993 337 50 870 171836 127390776
255	32040828 5633 900316 1076110 8.363 9.993 164 113850.21683532 116274.34469646 18856947.933401 2168278916246.9
256	32046461 3351 900316 1076110 8.363 9.993 164 0 0 0 0
257	32049812 3351 900316 1076110 8.363 9.993 164 0 0 0 0
258	32053163 5483 900316 1076110 8.363 9.993 164 0.005642830779 0.006642830779 0.933424247756 0.0053202977213345
259	32058646 3843 900316 1076110 8.363 9.993 164 1029 1029 168756 173649924
260	32062489 3843 900317 1076111 8.363 9.993 164 1029 1029 168756 173649924
261	32066332 3843 900317 1076111 8.363 9.993 164 1028 1028 168592 173312576
262	32070175 3843 900320 1076114 8.363 9.993 164 1008 1008 165312 166634496
263	32074018 3843 900321 1076115 8.363 9.993 164 1000 1000 164000 164000000
264	32077861 5483 900321 1076115 8.363 9.993 164 0.005646400379 0.006646400379 0.934009662156 0.0053269637134193
265	32083344 3679 900321 1076115 8.363 9.993 164 831 994 149650 136923190
266	32087023 6864 900349 1076203 8.363 9.994 336 0 0 0 0
267	32093887 6864 900349 1076203 8.363 9.994 336 0 0 0 0
268	32100751 6864 900349 1076203 8.363 9.994 336 1 1 336 336
269	32107615 8952 899545 1076357 8.355 9.995 438 0 1 4 4
270	32116567 9035 899545 1076357 8.355 9.995 442 0 1 4 4
271	32125602 8952 899545 1076357 8.355 9.995 438 1 2 442 450
272	32134554 7818 900231 1076143 8.362 9.993 234 468.6592467079 468.6592467079 109666.26372965 51396108.548807
273	32142372 8045 900231 1076143 8.362 9.993 234 26.181841065344 42.334831912358 8308.4399207608 298717.24102541
274	32150417 5629 900333 1076186 8.363 9.994 164 113823.3719893 116274.34469646 18855299.359333 2167900049233
275	32156046 3351 900333 1076186 8.363 9.994 164 0 0 0 0
276	32159397 3351 900333 1076186 8.363 9.994 164 0 0 0 0
277	32162748 5483 900333 1076186 8.363 9.994 164 0.005950775168 0.010950775168 1.101927127552 0.00751311825875
278	32168231 3843 900333 1076186 8.363 9.994 164 1029 1029 168756 173649924
279	32172074 3843 900334 1076187 8.363 9.994 164 1029 1029 168756 173649924
280	32175917 3843 900334 1076187 8.363 9.994 164 1028 1028 168592 173312576
281	32179760 3843 900337 1076190 8.363 9.994 164 1008 1008 165312 166634496
282	32183603 3843 900338 1076191 8.363 9.994 164 1000 1000 164000 164000000
283	32187446 5483 900338 1076191 8.363 9.994 164 0.005954344768 0.010954344768 1.102512541952 0.0075209872265943
284	32192929 3679 900338 1076191 8.363 9.994 164 831 994 149650 136923190
285	32196608 8827 900012 1076639 8.36 9.998 274 25.4839878461 25.4839878461 6982.6126698313 177944.816412
286	32205435 9375 900012 1076639 8.36 9.998 274 27.480151832193 27.480151832193 7529.5616020209 206913.49605339
287	32214810 9375 900014 1076641 8.36 9.998 274 23.170475863561 23.170475863561 6348.7103866158 147102.64077782
288	32224185 9375 900014 1076641 8.36 9.998 274 19.662074465772 19.662074465772 5387.4084036216 105927.62520954
289	32233560 9375 900016 1076643 8.36 9.998 274 17.414030346023 17.414030346023 4771.4443148102 83090.076092463
290	32242935 9375 900016 1076643 8.36 9.998 274 31.357844300624 31.357844300624 8592.0493383711 269428.14537592
291	32252310 9923 900018 1076645 8.36 9.998 274 -0.12583825487757 -0.12583825487757 -34.479681836455 4.3388629910335
292	32262233 9375 900018 1076645 8.36 9.998 274 29.896231522757 29.896231522757 8191.5674372353 244896.99663786
293	32271608 9375 900020 1076647 8.36 9.998 274 21.566456303532 21.566456303532 5909.2090271679 127440.69827285
294	32280983 9649 900020 1076647 8.36 9.998 274 -19.532270031748 -19.532270031748 -5351.8419886989 104533.62289051
295	32290632 9375 900022 1076649 8.36 9.998 274 9.1248032708285 9.1248032708285 2500.196096207 22813.797516382
296	32300007 9375 900022 1076649 8.36 9.998 274 -20.42774032845 -20.42774032845 -5597.2008499953 114338.16552988
297	32309382 9375 900024 1076651 8.36 9.998 274 23.425558695197 23.425558695197 6418.6030824839 150359.3632499
298	32318757 9101 900024 1076651 8.36 9.998 274 38.89475131682 38.89475131682 10657.161860809 414507.66031926
299	32327858 9649 900026 1076653 8.36 9.998 274 -1.5542884037618 -1.5542884037618 -425.87502263073 661.93260912674
300	32337507 9375 900026 1076653 8.36 9.998 274 31.191222258155 31.191222258155 8546.3948987345 266572.50279239
301	32346882 9375 900028 1076655 8.36 9.998 274 8.8668523454757 8.8668523454757 2429.5175426604 21542.173321512
302	32356257 9375 900028 1076655 8.36 9.998 274 36.063500333513 36.063500333513 9881.3990913826 356357.83942765
303	32365632 9375 900030 1076657 8.36 9.998 274 12.151330001147 12.151330001147 3329.4644203144 40457.420898319
304	32375007 9375 900030 1076657 8.36 9.998 274 32.538858562629 32.538858562629 8915.6472461603 290104.9847371
305	32384382 9375 900032 1076659 8.36 9.998 274 16.257706548365 16.257706548365 4454.6115942519 72421.768086292
306	32393757 9649 900032 1076659 8.36 9.998 274 -30.957366751952 -30.957366751952 -8482.3184900348 262590.24440287
307	32403406 9375 900034 1076661 8.36 9.998 274 5.6240146719153 5.6240146719153 1540.9800201048 8666.4942421976
308	32412781 9649 900034 1076661 8.36 9.998 274 -21.873950533088 -21.873950533088 -5993.4624460661 131100.70106717
309	32422430 9375 900036 1076663 8.36 9.998 274 23.359527266209 23.359527266209 6400.5104709412 149512.89886361
310	32431805 9375 900036 1076663 8.36 9.998 274 34.331556632388 34.331556632388 9406.8465172743 322951.68393999
311	32441180 9375 900038 1076665 8.36 9.998 274 14.447674901516 14.447674901516 3958.6629230154 57193.474956411
312	32450555 9375 900038 1076665 8.36 9.998 274 21.437869052317 21.437869052317 5873.9761203347 125925.53088417
313	32459930 9375 900040 1076667 8.36 9.998 274 20.759415716734 20.759415716734 5688.0799063851 118081.21540665
314	32469305 9375 900040 1076667 8.36 9.998 274 27.325637957896 27.325637957896 7487.2248004636 204593.19420685
315	32478680 9375 900042 1076669 8.36 9.998 274 8.5206063928621 8.5206063928621 2334.6461516442 19892.600924771
316	32488055 9375 900042 1076669 8.36 9.998 274 24.009008402984 24.009008402984 6578.4683024177 157942.50075151
317	32497430 9375 900044 1076671 8.36 9.998 274 15.879167552036 15.879167552036 4350.8919092579 69088.541627903
318	32506805 9375 900044 1076671 8.36 9.998 274 29.408746997862 29.408746997862 8057.9966774143 236975.58559569
319	32516180 9375 900046 1076673 8.36 9.998 274 9.0667609492321 9.0667609492321 2484.2925000896 22524.486226283
320	32525555 9375 900046 1076673 8.36 9.998 274 16.873777764527 16.873777764527 4623.4151074803 78014.479036777
321	32534930 9375 900048 1076675 8.36 9.998 274 27.493786881751 27.493786881751 7533.2976055999 207118.87888517
322	32544305 9375 900048 1076675 8.36 9.998 274 44.312191183217 44.312191183217 12141.540384202 538018.25876349
323	32553680 9375 900050 1076677 8.36 9.998 274 7.3510556457967 7.3510556457967 2014.1892469483 14806.417235482
324	32563055 9375 900050 1076677 8.36 9.998 274 21.228829695926 21.228829695926 5816.6993366837 123481.71961086
325	32572430 2553 901517 1076201 8.374 9.994 125 1 1 125 125
326	32574983 7051 899548 1076360 8.355 9.995 329 15 15 4935 74025
327	32582034 11328 899548 1076360 8.355 9.995 329 356.73131655899 356.73131655899 117364.60314791 41867629.398375
328	32593362 11326 899548 1076360 8.355 9.995 329 40.244537983614 47.24975130174 14541.339576883 643078.25691533
329	32604688 7380 899549 1076361 8.355 9.995 329 167 870 170235 107115525
330	32612068 11384 899546 1076455 8.355 9.996 531 12 14 7086 95028
331	32623452 5990 900444 1076210 8.364 9.994 174 340.98180061032 340.98180061032 59330.833306195 20230734.372457
332	32629442 5990 900444 1076210 8.364 9.994 174 21.956893072316 25.152897666906 3828.1812201435 84244.895438444
333	32635432 11836 899547 1076456 8.355 9.996 531 37 555 171358 75065384
334	32647268 2348 900295 1074977 8.363 9.983 115 2 8 536 3448
335	32649616 2348 900295 1074977 8.363 9.983 115 0 1 11 11
336	32651964 6929 899521 1076419 8.355 9.996 339 1 1 339 339
337	32658893 7555 899521 1076419 8.355 9.996 337 48 868 170459 125945989
338	32666448 7555 899524 1076422 8.355 9.996 337 48 868 170459 125945989
339	32674003 6888 899524 1076422 8.355 9.996 337 0 0 0 0
340	32680891 8234 899524 1076422 8.355 9.996 337 0.004 0.01 1.36 0.00556
341	32689125 6888 899524 1076422 8.355 9.996 337 0 0 0 0
342	32696013 7575 899528 1076432 8.355 9.996 371 1 1 371 371
343	32703588 8303 899528 1076432 8.355 9.996 371 24 868 170527 106364215
344	32711891 8303 899531 1076435 8.355 9.996 371 24 868 170527 106364215
345	32720194 7575 899531 1076435 8.355 9.996 371 0 0 0 0
346	32727769 9059 899531 1076435 8.355 9.996 371 0.004 0.004 1.484 0.005936
347	32736828 7575 899531 1076435 8.355 9.996 371 0 0 0 0
348	32744403 12297 899546 1076455 8.355 9.996 357 340.98180061032 340.98180061032 121730.50281788 41507886.040041
349	32756700 12183 899546 1076455 8.355 9.996 357 25.642809462327 35.56290466778 9833.6303743693 272644.07529675
350	32768883 9664 899550 1076532 8.355 9.997 274 -18.960242986756 -18.960242986756 -5195.106578371 98500.483068007
351	32778547 5665 899583 1076422 8.356 9.996 165 114041.01823032 116524.8776509 19007810.099085 2189763466320.8
352	32784212 3371 899583 1076422 8.356 9.996 165 0 0 0 0
353	32787583 3371 899583 1076422 8.356 9.996 165 0 0 0 0
354	32790954 5516 899583 1076422 8.356 9.996 165 0.005070190714 0.010070190714 0.85358146781 0.0044710140738708
355	32796470 3866 899583 1076422 8.356 9.996 165 1029 1029 169785 174708765
356	32800336 3866 899584 1076423 8.356 9.996 165 1029 1029 169785 174708765
357	32804202 3866 899584 1076423 8.356 9.996 165 1028 1028 169620 174369360
358	32808068 3866 899587 1076426 8.356 9.996 165 1008 1008 166320 167650560
359	32811934 3866 899588 1076427 8.356 9.996 165 1000 1000 165000 165000000
360	32815800 5516 899588 1076427 8.356 9.996 165 0.005073760314 0.010073760314 0.85417045181 0.004477110065123
361	32821316 3701 899588 1076427 8.356 9.996 165 832 996 150810 138214670
362	32825017 5655 899596 1076435 8.356 9.996 165 114155.40240107 116664.7634584 19028004.807465 2194420030273.6
363	32830672 3371 899596 1076435 8.356 9.996 165 0 0 0 0
364	32834043 3371 899596 1076435 8.356 9.996 165 0 0 0 0
365	32837414 5516 899596 1076435 8.356 9.996 165 0.005975607061 0.008975607061 1.046975165065 0.0067258242197751
366	32842930 3866 899596 1076435 8.356 9.996 165 1029 1029 169785 174708765
367	32846796 3866 899597 1076436 8.356 9.996 165 1029 1029 169785 174708765
368	32850662 3866 899597 1076436 8.356 9.996 165 1028 1028 169620 174369360
369	32854528 3866 899600 1076439 8.356 9.996 165 1008 1008 166320 167650560
370	32858394 3866 899601 1076440 8.356 9.996 165 1000 1000 165000 165000000
371	32862260 5516 899601 1076440 8.356 9.996 165 0.005979176661 0.008979176661 1.047564149065 0.0067333008873108
372	32867776 3701 899601 1076440 8.356 9.996 165 833 997 150975 138516455
373	32871477 6889 899617 1076523 8.356 9.997 337 0 1 2 2
374	32878366 6930 899617 1076523 8.356 9.997 339 0 1 2 2
375	32885296 6889 899617 1076523 8.356 9.997 337 1 2 339 343
376	32892185 7574 899619 1076527 8.356 9.997 371 0 0 0 0
377	32899759 7574 899619 1076527 8.356 9.997 371 0 0 0 0
378	32907333 7574 899619 1076527 8.356 9.997 371 1 1 371 371
379	32914907 7434 899620 1076528 8.356 9.997 347 12 14 4830 67284
380	32922341 11465 899620 1076528 8.356 9.997 333 606.26164113982 606.26164113982 201885.12649956 122395208.11334
381	32933806 11465 899620 1076528 8.356 9.997 333 24.699619719152 32.172410243332 9749.8633622882 287271.84075039
382	32945271 7764 899621 1076529 8.356 9.997 347 54 846 171173 112022965
383	32953035 7500 899622 1076530 8.356 9.997 350 14 14 4900 68600
384	32960535 9404 899622 1076530 8.356 9.997 290 374.093617907 374.093617907 108487.14919303 40584350.138036
385	32969939 9819 899622 1076530 8.356 9.997 290 31.78230174801 32.882987237439 9354.4531931015 301830.28243345
386	32979758 7845 899623 1076531 8.356 9.997 350 54 705 171185 99272395
387	32987603 7938 899778 1076151 8.358 9.994 389 4 7 1684 7600
388	32995541 7938 899778 1076151 8.358 9.994 389 0 1 40 40
389	33003479 6743 899666 1076626 8.357 9.998 330 1 1 330 330
390	33010222 7403 899666 1076626 8.357 9.998 330 165 868 170445 107189325
391	33017625 7403 899669 1076629 8.357 9.998 330 165 868 170445 107189325
392	33025028 6743 899669 1076629 8.357 9.998 330 0 0 0 0
393	33031771 8063 899669 1076629 8.357 9.998 330 0.004 0.004 1.32 0.00528
394	33039834 6743 899669 1076629 8.357 9.998 330 0 0 0 0
395	33046577 893 900296 1071745 8.363 9.953 44 2 7 215 1247
396	33047470 893 900296 1071745 8.363 9.953 44 0 1 4 4
397	33048363 5665 899814 1076629 8.358 9.998 165 114244.3876417 116772.90024463 19045023.863795 2198348699246.7
398	33054028 3372 899814 1076629 8.358 9.998 165 0 0 0 0
399	33057400 3372 899814 1076629 8.358 9.998 165 0 0 0 0
400	33060772 5517 899814 1076629 8.358 9.998 165 0.005653734098 0.006653734098 0.93386612617 0.0052864844945925
401	33066289 3867 899814 1076629 8.358 9.998 165 1029 1029 169785 174708765
402	33070156 3867 899815 1076630 8.358 9.998 165 1029 1029 169785 174708765
403	33074023 3867 899815 1076630 8.358 9.998 165 1028 1028 169620 174369360
404	33077890 3867 899818 1076633 8.358 9.998 165 1008 1008 166320 167650560
405	33081757 3867 899819 1076634 8.358 9.998 165 1000 1000 165000 165000000
406	33085624 5517 899819 1076634 8.358 9.998 165 0.005657303698 0.006657303698 0.93445511017 0.0052931536540777
407	33091141 3702 899819 1076634 8.358 9.998 165 834 998 151140 138818570
408	33094843 6743 899831 1076765 8.358 9.999 330 0 0 0 0
409	33101586 6743 899831 1076765 8.358 9.999 330 0 0 0 0
410	33108329 6743 899831 1076765 8.358 9.999 330 1 1 330 330
411	33115072 7722 899832 1076687 8.358 9.998 218 -15.080163828013 -14.370271299999 -3222.1656019296 47652.261121717
412	33122794 6087 899916 1076770 8.359 9.999 177 251.15434004542 251.15434004542 44454.31818804 11164894.946687
413	33128881 5948 899916 1076770 8.359 9.999 173 24.587761067478 26.126598389751 4265.9933632518 105212.86220873
414	33134829 3703 899980 1076826 8.36 10 165 1000 1000 165000 165000000
415	33138532 3703 900006 1076849 8.36 10 165 1000 1000 165000 165000000
416	33142235 2464 902190 1076860 8.38 10 125 1 1 125 125
417	33144699 511 909994 1074978 8.453 9.983 25 2 7 160 1090
418	33145210 511 909994 1074978 8.453 9.983 25 0 1 1 1
419	33145721 433 920121 1075403 8.547 9.987 21 2 2 42 84
420	33146154 433 920121 1075403 8.547 9.987 21 0 1 2 2
421	33146587 524 900393 1075069 8.364 9.984 26 2 2 52 104
422	33147111 524 900393 1075069 8.364 9.984 26 0 1 3 3
423	33147635 570 900716 1049378 8.367 9.746 28 2 2 56 112
424	33148205 570 900716 1049378 8.367 9.746 28 0 1 3 3
425	33148775 511 900548 1075288 8.365 9.986 25 2 2 50 100
426	33149286 511 900548 1075288 8.365 9.986 25 0 1 2 2
427	33149797 1946 899681 1075460 8.357 9.987 60 374.093617907 374.093617907 22445.61707442 8396762.0975247
428	33151743 2051 899681 1075460 8.357 9.987 60 35.951586810898 36.71524626026 2178.2947640201 79088.700776884
429	33153794 2746 900235 1070597 8.362 9.942 80 365.44493995446 365.44493995446 29235.595196357 10684000.331066
430	33156540 2746 900235 1070597 8.362 9.942 80 24.185049938691 24.185049938691 1934.8039950953 46793.331242958
431	33159286 569 904235 1076775 8.3990433593 9.9990433593 17 8224000 8224000 139808000 1.149780992e+15
432	33159855 569 904235 1076775 8.3990433593 9.9990433593 17 8224000 8224000 139808000 1.149780992e+15
433	33160424 569 904239 1076779 8.3990442373 9.9990442373 17 8224000 8224000 139808000 1.149780992e+15
434	33160993 569 904239 1076779 8.3990442373 9.9990442373 17 8224000 8224000 139808000 1.149780992e+15
435	33161562 569 904246 1076786 8.3990451153 9.9990451153 17 8512000 8512000 144704000 1.231720448e+15
436	33162131 569 904246 1076786 8.3990451153 9.9990451153 17 8512000 8512000 144704000 1.231720448e+15
437	33162700 569 904250 1076790 8.3990460221 9.9990460221 17 8512000 8512000 144704000 1.231720448e+15
438	33163269 569 904250 1076790 8.3990460221 9.9990460221 17 8512000 8512000 144704000 1.231720448e+15
439	33163838 205 917128 1069476 8.519 9.932 6 4032.131661442 4105.599148823 24391.839801287 99164204.999324
440	33164043 123 917128 1069476 8.519 9.932 6 0 0 0 0
441	33164166 123 917128 1069476 8.519 9.932 6 0 0 0 0
442	33164289 201 917128 1069476 8.519 9.932 6 8.194343343998 9.557343343998 53.278060063988 474.39654269699
443	33164490 141 917128 1069476 8.519 9.932 6 1029 1029 6174 6353046
444	33164631 141 917129 1069477 8.519 9.932 6 1029 1029 6174 6353046
445	33164772 141 917129 1069477 8.519 9.932 6 1028 1028 6168 6340704
446	33164913 141 917132 1069480 8.519 9.932 6 1008 1008 6048 6096384
447	33165054 141 917133 1069481 8.519 9.932 6 1000 1000 6000 6000000
448	33165195 201 917133 1069481 8.519 9.932 6 8.194346913598 9.557346913598 53.278081481588 474.39692305979
449	33165396 129 917133 1069481 8.519 9.932 6 30 35 195 6355
450	33165525 573 919787 1076395 8.544 9.996 28 2 2 56 112
451	33166098 573 919787 1076395 8.544 9.996 28 0 1 2 2
452	33166671 265 946114 1072172 8.788 9.957 13 2 2 26 52
453	33166936 265 946114 1072172 8.788 9.957 13 0 1 2 2
454	33167201 480 905086 1052783 8.407 9.777 14 606.26164113982 606.26164113982 8487.6629759575 5145744.4852457
455	33167681 466 905086 1052783 8.407 9.777 14 16.05239403946 16.05239403946 224.73351655244 3607.5109615732
456	33168147 369 910256 1075232 8.455 9.985 18 2 2 36 72
457	33168516 369 910256 1075232 8.455 9.985 18 0 1 2 2
460	33168885 41 970324 1039313 9.012 9.652 2 0 0 0 0
461	33168926 83 960312 1073520 8.919 9.969 4 0 0 0 0
464	33169009 20 997596 997596 9.265 9.265 1 2 2 2 4
465	33169029 20 997596 997596 9.265 9.265 1 0 0 0 0
466	33169049 23 1076871 1076871 10 10 1 100000 100000 100000 10000000000
467	33169072 23 1076871 1076871 10 10 1 100000 100000 100000 10000000000
468	33169095 23 1076871 1076871 10 10 1 100000 100000 100000 10000000000
469	33169118 23 1076871 1076871 10 10 1 100000 100000 100000 10000000000
470	33169141 23 1076871 1076871 10 10 1 100000 100000 100000 10000000000
471	33169164 23 1076871 1076871 10 10 1 100000 100000 100000 10000000000
472	33169187 23 1076871 1076871 10 10 1 100000 100000 100000 10000000000
473	33169210 23 1076871 1076871 10 10 1 100000 100000 100000 10000000000
474	33169233 23 1076871 1076871 10 10 1 100000 100000 100000 10000000000
475	33169256 23 1076871 1076871 10 10 1 100000 100000 100000 10000000000

